data_image0
_chemical_formula_structural       AlPAlPAlPAlPAlPAlPAlPAlPAlPAlPAlPAlPAlPAlPAlPAlPAlPAlPAlPAlPAlPAlP
_chemical_formula_sum              "Al22 P22"
_cell_length_a       22.0
_cell_length_b       22.0
_cell_length_c       3.897114317029973
_cell_angle_alpha    90.0
_cell_angle_beta     90.0
_cell_angle_gamma    90.0

_space_group_name_H-M_alt    "P 1"
_space_group_IT_number       1

loop_
  _space_group_symop_operation_xyz
  'x, y, z'

loop_
  _atom_site_type_symbol
  _atom_site_label
  _atom_site_symmetry_multiplicity
  _atom_site_fract_x
  _atom_site_fract_y
  _atom_site_fract_z
  _atom_site_occupancy
  Al  Al1       1.0  0.03714793293514673  0.5  0.24999999999999994  1.0000
  P   P1        1.0  0.027440970024364297  0.6016559147135988  0.24999999999999994  1.0000
  Al  Al2       1.0  0.01538966744282444  0.6513320605479077  0.7499999999999999  1.0000
  P   P2        1.0  0.977436123964476  0.7461354289619406  0.7499999999999999  1.0000
  Al  Al3       1.0  0.9518775962346586  0.7904040975566423  0.24999999999999994  1.0000
  P   P3        1.0  0.8887522425629452  0.8706745145795458  0.24999999999999994  1.0000
  Al  Al4       1.0  0.851757089599103  0.9059493216810068  0.7499999999999999  1.0000
  P   P4        1.0  0.7685739664675734  0.9651837555121371  0.7499999999999999  1.0000
  Al  Al5       1.0  0.7231393155441904  0.9886069460363526  0.24999999999999994  1.0000
  P   P5        1.0  0.6266374248798794  0.02200657512745341  0.24999999999999994  1.0000
  Al  Al6       1.0  0.5764441212044947  0.03168054148122934  0.7499999999999998  1.0000
  P   P6        1.0  0.47444147227018274  0.03653952651858283  0.7499999999999998  1.0000
  Al  Al7       1.0  0.42355587879550527  0.03168054148122956  0.24999999999999994  1.0000
  P   P7        1.0  0.3243161195747387  0.00760523639460553  0.24999999999999994  1.0000
  Al  Al8       1.0  0.2768606844558097  0.9886069460363526  0.75  1.0000
  P   P8        1.0  0.18842363003908166  0.937547788862517  0.75  1.0000
  Al  Al9       1.0  0.1482429104008971  0.9059493216810068  0.24999999999999994  1.0000
  P   P9        1.0  0.07777320498163665  0.8320428216736838  0.24999999999999994  1.0000
  Al  Al10      1.0  0.048122403765341465  0.7904040975566424  0.7499999999999996  1.0000
  P   P10       1.0  0.001329083777141885  0.6996377198075456  0.7499999999999996  1.0000
  Al  Al11      1.0  0.9846103325571754  0.6513320605479077  0.24999999999999994  1.0000
  P   P11       1.0  0.9652843144948912  0.5510591571738355  0.24999999999999994  1.0000
  Al  Al12      1.0  0.9628520670648533  0.5000000000000001  0.75  1.0000
  P   P12       1.0  0.9725590299756356  0.39834408528640125  0.75  1.0000
  Al  Al13      1.0  0.9846103325571754  0.3486679394520925  0.24999999999999994  1.0000
  P   P13       1.0  0.02256387603552409  0.2538645710380595  0.24999999999999994  1.0000
  Al  Al14      1.0  0.048122403765341465  0.20959590244335777  0.75  1.0000
  P   P14       1.0  0.11124775743705487  0.12932548542045408  0.75  1.0000
  Al  Al15      1.0  0.148242910400897  0.09405067831899325  0.24999999999999994  1.0000
  P   P15       1.0  0.2314260335324264  0.03481624448786311  0.24999999999999994  1.0000
  Al  Al16      1.0  0.27686068445580964  0.011393053963647436  0.75  1.0000
  P   P16       1.0  0.3733625751201208  0.9779934248725465  0.75  1.0000
  Al  Al17      1.0  0.42355587879550516  0.9683194585187705  0.24999999999999994  1.0000
  P   P17       1.0  0.5255585277298174  0.9634604734814172  0.24999999999999994  1.0000
  Al  Al18      1.0  0.5764441212044947  0.9683194585187705  0.7499999999999991  1.0000
  P   P18       1.0  0.6756838804252614  0.9923947636053945  0.7499999999999991  1.0000
  Al  Al19      1.0  0.7231393155441902  0.011393053963647355  0.24999999999999994  1.0000
  P   P19       1.0  0.8115763699609183  0.06245221113748293  0.24999999999999994  1.0000
  Al  Al20      1.0  0.8517570895991031  0.09405067831899325  0.75  1.0000
  P   P20       1.0  0.9222267950183635  0.1679571783263163  0.75  1.0000
  Al  Al21      1.0  0.9518775962346586  0.20959590244335785  0.24999999999999994  1.0000
  P   P21       1.0  0.9986709162228582  0.30036228019245464  0.24999999999999994  1.0000
  Al  Al22      1.0  0.01538966744282444  0.3486679394520923  0.75  1.0000
  P   P22       1.0  0.03471568550510873  0.44894084282616453  0.75  1.0000
