data_image0
_chemical_formula_structural       AlPAlPAlPAlPAlPAlPAlPAlPAlPAlPAlPAlPAlPAlP
_chemical_formula_sum              "Al14 P14"
_cell_length_a       22.0
_cell_length_b       22.0
_cell_length_c       3.897114317029973
_cell_angle_alpha    90.0
_cell_angle_beta     90.0
_cell_angle_gamma    90.0

_space_group_name_H-M_alt    "P 1"
_space_group_IT_number       1

loop_
  _space_group_symop_operation_xyz
  'x, y, z'

loop_
  _atom_site_type_symbol
  _atom_site_label
  _atom_site_symmetry_multiplicity
  _atom_site_fract_x
  _atom_site_fract_y
  _atom_site_fract_z
  _atom_site_occupancy
  Al  Al1       1.0  0.8418214118678207  0.5  0.24999999999999994  1.0000
  P   P1        1.0  0.8266352456163133  0.600753629872481  0.24999999999999994  1.0000
  Al  Al2       1.0  0.8079704504753569  0.6483107522916529  0.7499999999999999  1.0000
  P   P2        1.0  0.75057282580122  0.7324976055388567  0.7499999999999999  1.0000
  Al  Al3       1.0  0.7131221643565401  0.7672467411799332  0.24999999999999994  1.0000
  P   P3        1.0  0.624881384762157  0.8181925790322527  0.24999999999999994  1.0000
  Al  Al4       1.0  0.5760624198150934  0.8332512354113376  0.7499999999999999  1.0000
  P   P4        1.0  0.4744556539012741  0.8408656098724229  0.7499999999999999  1.0000
  Al  Al5       1.0  0.42393758018490657  0.8332512354113376  0.24999999999999994  1.0000
  P   P5        1.0  0.3290892940660898  0.7960260262349964  0.24999999999999994  1.0000
  Al  Al6       1.0  0.28687783564346  0.7672467411799332  0.7499999999999998  1.0000
  P   P6        1.0  0.2175738956233691  0.6925548575807701  0.7499999999999998  1.0000
  Al  Al7       1.0  0.19202954952464316  0.6483107522916529  0.24999999999999994  1.0000
  P   P7        1.0  0.16199645088130296  0.5509458378523195  0.24999999999999994  1.0000
  Al  Al8       1.0  0.1581785881321794  0.5000000000000001  0.75  1.0000
  P   P8        1.0  0.17336475438368662  0.3992463701275191  0.75  1.0000
  Al  Al9       1.0  0.1920295495246431  0.3516892477083472  0.24999999999999994  1.0000
  P   P9        1.0  0.24942717419878002  0.2675023944611435  0.24999999999999994  1.0000
  Al  Al10      1.0  0.2868778356434599  0.23275325882006684  0.7499999999999996  1.0000
  P   P10       1.0  0.37511861523784307  0.1818074209677473  0.7499999999999996  1.0000
  Al  Al11      1.0  0.42393758018490646  0.16674876458866242  0.24999999999999994  1.0000
  P   P11       1.0  0.5255443460987259  0.15913439012757716  0.24999999999999994  1.0000
  Al  Al12      1.0  0.5760624198150934  0.16674876458866242  0.75  1.0000
  P   P12       1.0  0.6709107059339103  0.20397397376500376  0.75  1.0000
  Al  Al13      1.0  0.71312216435654  0.23275325882006676  0.24999999999999994  1.0000
  P   P13       1.0  0.782426104376631  0.30744514241923004  0.24999999999999994  1.0000
  Al  Al14      1.0  0.8079704504753569  0.35168924770834703  0.75  1.0000
  P   P14       1.0  0.838003549118697  0.44905416214768057  0.75  1.0000
