data_image0
_chemical_formula_structural       AlPAlPAlPAlPAlPAlP
_chemical_formula_sum              "Al6 P6"
_cell_length_a       22.0
_cell_length_b       22.0
_cell_length_c       3.897114317029974
_cell_angle_alpha    90.0
_cell_angle_beta     90.0
_cell_angle_gamma    90.0

_space_group_name_H-M_alt    "P 1"
_space_group_IT_number       1

loop_
  _space_group_symop_operation_xyz
  'x, y, z'

loop_
  _atom_site_type_symbol
  _atom_site_label
  _atom_site_symmetry_multiplicity
  _atom_site_fract_x
  _atom_site_fract_y
  _atom_site_fract_z
  _atom_site_occupancy
  Al  Al1       1.0  0.6464948908004946  0.5  3.4186003313485577e-16  1.0000
  P   P1        1.0  0.6122215970430404  0.5941651006889405  3.4186003313485577e-16  1.0000
  Al  Al2       1.0  0.5732474454002473  0.6268682969578555  0.5000000000000002  1.0000
  P   P2        1.0  0.47456142917497823  0.6442693042370039  0.5000000000000002  1.0000
  Al  Al3       1.0  0.42675255459975275  0.6268682969578556  1.1395334437828526e-16  1.0000
  P   P3        1.0  0.3623398321319378  0.5501042035480634  0.0  1.0000
  Al  Al4       1.0  0.35350510919950545  0.5  0.4999999999999999  1.0000
  P   P4        1.0  0.38777840295695964  0.40583489931105954  0.4999999999999999  1.0000
  Al  Al5       1.0  0.42675255459975264  0.3731317030421445  0.9999999999999999  1.0000
  P   P5        1.0  0.5254385708250218  0.35573069576299615  0.9999999999999998  1.0000
  Al  Al6       1.0  0.5732474454002473  0.3731317030421444  0.49999999999999956  1.0000
  P   P6        1.0  0.6376601678680622  0.4498957964519365  0.49999999999999956  1.0000
