data_image0
_chemical_formula_structural       AlPAlPAlPAlPAlPAlPAlPAlPAlPAlPAlPAlPAlPAlPAlPAlPAlPAlP
_chemical_formula_sum              "Al18 P18"
_cell_length_a       22.0
_cell_length_b       22.0
_cell_length_c       3.8971143170299736
_cell_angle_alpha    90.0
_cell_angle_beta     90.0
_cell_angle_gamma    90.0

_space_group_name_H-M_alt    "P 1"
_space_group_IT_number       1

loop_
  _space_group_symop_operation_xyz
  'x, y, z'

loop_
  _atom_site_type_symbol
  _atom_site_label
  _atom_site_symmetry_multiplicity
  _atom_site_fract_x
  _atom_site_fract_y
  _atom_site_fract_z
  _atom_site_occupancy
  Al  Al1       1.0  0.9394846724014837  0.5  5.127900497022838e-16  1.0000
  P   P1        1.0  0.9276383061787179  0.6013521404038242  5.127900497022838e-16  1.0000
  Al  Al2       1.0  0.9129805036041866  0.6503126106441901  0.5000000000000004  1.0000
  P   P2        1.0  0.867184087094247  0.7415007732091224  0.5000000000000004  1.0000
  Al  Al3       1.0  0.8366647911291211  0.7824953020668215  3.988367053239985e-16  1.0000
  P   P3        1.0  0.7624420480462304  0.8525208485935827  4.440892098500626e-16  1.0000
  Al  Al4       1.0  0.7197423362007419  0.8806048908735665  0.5000000000000003  1.0000
  P   P4        1.0  0.62604562477172  0.9210217069840297  0.5000000000000003  1.0000
  Al  Al5       1.0  0.5763157124750656  0.9328079127110117  2.848833609457132e-16  1.0000
  P   P5        1.0  0.47444623891443927  0.9387411338935769  4.440892098500626e-16  1.0000
  Al  Al6       1.0  0.42368428752493453  0.9328079127110117  0.5000000000000001  1.0000
  P   P6        1.0  0.3259290137774249  0.903541904926043  0.5000000000000001  1.0000
  Al  Al7       1.0  0.28025766379925826  0.8806048908735667  5.697667218914264e-17  1.0000
  P   P7        1.0  0.19840731859300204  0.8196695665802056  2.220446049250313e-16  1.0000
  Al  Al8       1.0  0.163335208870879  0.7824953020668217  0.5000000000000001  1.0000
  P   P8        1.0  0.1072621518201923  0.6972403606844547  0.5000000000000001  1.0000
  Al  Al9       1.0  0.0870194963958134  0.6503126106441901  5.697667218914264e-17  1.0000
  P   P9        1.0  0.06348696573119449  0.5510210563324605  2.220446049250313e-16  1.0000
  Al  Al10      1.0  0.06051532759851629  0.5000000000000001  0.4999999999999996  1.0000
  P   P10       1.0  0.07236169382128202  0.3986478595961758  0.4999999999999996  1.0000
  Al  Al11      1.0  0.0870194963958134  0.34968738935581  0.9999999999999996  1.0000
  P   P11       1.0  0.132815912905753  0.2584992267908777  0.9999999999999997  1.0000
  Al  Al12      1.0  0.16333520887087896  0.21750469793317853  0.4999999999999996  1.0000
  P   P12       1.0  0.23755795195376964  0.14747915140641746  0.4999999999999996  1.0000
  Al  Al13      1.0  0.28025766379925793  0.11939510912643347  0.9999999999999996  1.0000
  P   P13       1.0  0.37395437522827985  0.07897829301597024  0.9999999999999997  1.0000
  Al  Al14      1.0  0.42368428752493453  0.06719208728898844  0.4999999999999996  1.0000
  P   P14       1.0  0.5255537610855607  0.061258866106423185  0.4999999999999996  1.0000
  Al  Al15      1.0  0.5763157124750654  0.06719208728898844  0.9999999999999996  1.0000
  P   P15       1.0  0.674070986222575  0.09645809507395695  0.9999999999999997  1.0000
  Al  Al16      1.0  0.7197423362007419  0.11939510912643339  0.4999999999999996  1.0000
  P   P16       1.0  0.8015926814069981  0.18033043341979452  0.4999999999999996  1.0000
  Al  Al17      1.0  0.836664791129121  0.21750469793317836  0.9999999999999996  1.0000
  P   P17       1.0  0.8927378481798078  0.30275963931554534  0.9999999999999997  1.0000
  Al  Al18      1.0  0.9129805036041865  0.3496873893558096  0.4999999999999987  1.0000
  P   P18       1.0  0.9365130342688055  0.44897894366753927  0.4999999999999987  1.0000
