data_image0
_chemical_formula_structural       AlPAlPAlPAlPAlPAlPAlPAlPAlPAlP
_chemical_formula_sum              "Al10 P10"
_cell_length_a       22.0
_cell_length_b       22.0
_cell_length_c       3.8971143170299736
_cell_angle_alpha    90.0
_cell_angle_beta     90.0
_cell_angle_gamma    90.0

_space_group_name_H-M_alt    "P 1"
_space_group_IT_number       1

loop_
  _space_group_symop_operation_xyz
  'x, y, z'

loop_
  _atom_site_type_symbol
  _atom_site_label
  _atom_site_symmetry_multiplicity
  _atom_site_fract_x
  _atom_site_fract_y
  _atom_site_fract_z
  _atom_site_occupancy
  Al  Al1       1.0  0.7441581513341575  0.5  2.848833609457132e-16  1.0000
  P   P1        1.0  0.7230495700977345  0.5993080668532486  2.848833609457132e-16  1.0000
  Al  Al2       1.0  0.6975280937445038  0.6435125605812116  0.5000000000000002  1.0000
  P   P2        1.0  0.6220790756670789  0.711447161596426  0.5000000000000002  1.0000
  Al  Al3       1.0  0.575449018077425  0.7322082008329289  1.709300165674279e-16  1.0000
  P   P3        1.0  0.47447852364676935  0.7428206274344602  2.220446049250313e-16  1.0000
  Al  Al4       1.0  0.42455098192257507  0.7322082008329289  0.5000000000000001  1.0000
  P   P4        1.0  0.33662630815031724  0.6814448667621058  0.5000000000000001  1.0000
  Al  Al5       1.0  0.30247190625549625  0.6435125605812118  5.697667218914264e-17  1.0000
  P   P5        1.0  0.2611772900728923  0.5507633340708231  2.220446049250313e-16  1.0000
  Al  Al6       1.0  0.25584184866584236  0.5  0.49999999999999983  1.0000
  P   P6        1.0  0.27695042990226554  0.4006919331467515  0.49999999999999983  1.0000
  Al  Al7       1.0  0.30247190625549625  0.35648743941878835  0.9999999999999998  1.0000
  P   P7        1.0  0.37792092433292107  0.28855283840357415  0.9999999999999999  1.0000
  Al  Al8       1.0  0.424550981922575  0.2677917991670712  0.49999999999999983  1.0000
  P   P8        1.0  0.5255214763532305  0.2571793725655398  0.49999999999999983  1.0000
  Al  Al9       1.0  0.575449018077425  0.26779179916707113  0.9999999999999998  1.0000
  P   P9        1.0  0.6633736918496826  0.31855513323789414  0.9999999999999999  1.0000
  Al  Al10      1.0  0.6975280937445038  0.3564874394187883  0.4999999999999994  1.0000
  P   P10       1.0  0.7388227099271076  0.4492366659291768  0.4999999999999994  1.0000
