data_image0
_chemical_formula_structural       AlPAlPAlPAlPAlPAlPAlPAlPAlPAlPAlPAlPAlPAlPAlPAlPAlPAlPAlPAlPAlPAlPAlPAlPAlPAlPAlPAlPAlPAlPAlPAlPAlPAlPAlPAlPAlPAlPAlPAlPAlPAlPAlPAlPAlPAlPAlPAlPAlPAlPAlPAlPAlPAlPAlPAlPAlPAlPAlPAlPAlPAlPAlPAlPAlPAlPAlPAlPAlPAlPAlPAlPAlPAlPAlPAlPAlPAlPAlPAlPAlPAlPAlPAlPAlPAlPAlPAlPAlPAlPAlPAlPAlPAlPAlPAlPAlPAlP
_chemical_formula_sum              "Al98 P98"
_cell_length_a       22.0
_cell_length_b       22.0
_cell_length_c       47.669999999999995
_cell_angle_alpha    90.0
_cell_angle_beta     90.0
_cell_angle_gamma    90.0

_space_group_name_H-M_alt    "P 1"
_space_group_IT_number       1

loop_
  _space_group_symop_operation_xyz
  'x, y, z'

loop_
  _atom_site_type_symbol
  _atom_site_label
  _atom_site_symmetry_multiplicity
  _atom_site_fract_x
  _atom_site_fract_y
  _atom_site_fract_z
  _atom_site_occupancy
  Al  Al1       1.0  0.699104912460279  0.5  0.003401360544217692  1.0000
  P   P1        1.0  0.6734838343094912  0.5977042752344665  0.9965986394557822  1.0000
  Al  Al2       1.0  0.6986958300636945  0.5127566955405707  0.54421768707483  1.0000
  P   P2        1.0  0.6668674587584912  0.6086186787495532  0.5374149659863946  1.0000
  Al  Al3       1.0  0.6974702638812563  0.5254609710828625  0.08503401360544227  1.0000
  P   P3        1.0  0.6595653890264946  0.6190867448150247  0.07823129251700688  1.0000
  Al  Al4       1.0  0.6954332500272914  0.5380606220336137  0.6258503401360546  1.0000
  P   P4        1.0  0.6516076308843198  0.6290654579020244  0.6190476190476192  1.0000
  Al  Al5       1.0  0.6925931590286635  0.550503873724451  0.16666666666666682  1.0000
  P   P5        1.0  0.6430268844671064  0.6385138133380508  0.15986394557823147  1.0000
  Al  Al6       1.0  0.6889616614284839  0.5627395941651075  0.7074829931972788  1.0000
  P   P6        1.0  0.6338584099024471  0.6473929858039514  0.7006802721088435  1.0000
  Al  Al7       1.0  0.6845536798293453  0.574717504155739  0.24829931972789138  1.0000
  P   P7        1.0  0.6241398824189599  0.6556664888754873  0.241496598639456  1.0000
  Al  Al8       1.0  0.6793873275731479  0.58638838389494  0.7891156462585039  1.0000
  P   P8        1.0  0.6139112375306918  0.6633003249538766  0.7823129251700685  1.0000
  Al  Al9       1.0  0.6734838343094912  0.5977042752344665  0.32993197278911596  1.0000
  P   P9        1.0  0.6032145069335263  0.6702631249692206  0.3231292517006806  1.0000
  Al  Al10      1.0  0.6668674587584912  0.6086186787495532  0.870748299319728  1.0000
  P   P10       1.0  0.5920936457879287  0.6765262772827404  0.8639455782312925  1.0000
  Al  Al11      1.0  0.6595653890264948  0.6190867448150247  0.4115646258503399  1.0000
  P   P11       1.0  0.5805943520977633  0.6820640452581375  0.40476190476190455  1.0000
  Al  Al12      1.0  0.6516076308843198  0.6290654579020244  0.9523809523809532  1.0000
  P   P12       1.0  0.568763878927394  0.6868536730189538  0.9455782312925177  1.0000
  Al  Al13      1.0  0.6430268844671064  0.6385138133380508  0.49319727891156506  1.0000
  P   P13       1.0  0.5566508402287061  0.6908754789573479  0.4863945578231297  1.0000
  Al  Al14      1.0  0.6338584099024471  0.6473929858039514  0.03401360544217765  1.0000
  P   P14       1.0  0.5443050110759515  0.6941129366100446  0.027210884353742273  1.0000
  Al  Al15      1.0  0.6241398824189599  0.6556664888754873  0.5748299319727908  1.0000
  P   P15       1.0  0.5317771231292906  0.6965527425691163  0.5680272108843554  1.0000
  Al  Al16      1.0  0.6139112375306918  0.6633003249538766  0.11564625850340221  1.0000
  P   P16       1.0  0.5191186561675202  0.6981848711485402  0.10884353741496684  1.0000
  Al  Al17      1.0  0.6032145069335263  0.6702631249692206  0.6564625850340142  1.0000
  P   P17       1.0  0.5063816265466182  0.6990026155818935  0.6496598639455788  1.0000
  Al  Al18      1.0  0.5920936457879288  0.6765262772827403  0.1972789115646256  1.0000
  P   P18       1.0  0.49361837345338183  0.6990026155818935  0.1904761904761902  1.0000
  Al  Al19      1.0  0.5805943520977633  0.6820640452581375  0.7380952380952376  1.0000
  P   P19       1.0  0.48088134383247993  0.6981848711485402  0.7312925170068021  1.0000
  Al  Al20      1.0  0.568763878927394  0.6868536730189538  0.27891156462585137  1.0000
  P   P20       1.0  0.4682228768707094  0.6965527425691163  0.272108843537416  1.0000
  Al  Al21      1.0  0.5566508402287063  0.6908754789573479  0.8197278911564623  1.0000
  P   P21       1.0  0.4556949889240485  0.6941129366100446  0.8129251700680267  1.0000
  Al  Al22      1.0  0.5443050110759515  0.6941129366100446  0.3605442176870759  1.0000
  P   P22       1.0  0.4433491597712938  0.6908754789573479  0.3537414965986405  1.0000
  Al  Al23      1.0  0.5317771231292907  0.6965527425691163  0.901360544217689  1.0000
  P   P23       1.0  0.4312361210726061  0.6868536730189538  0.8945578231292537  1.0000
  Al  Al24      1.0  0.5191186561675202  0.6981848711485402  0.44217687074829926  1.0000
  P   P24       1.0  0.41940564790223667  0.6820640452581375  0.4353741496598639  1.0000
  Al  Al25      1.0  0.5063816265466182  0.6990026155818935  0.9829931972789123  1.0000
  P   P25       1.0  0.4079063542120714  0.6765262772827404  0.9761904761904772  1.0000
  Al  Al26      1.0  0.49361837345338183  0.6990026155818935  0.5238095238095251  1.0000
  P   P26       1.0  0.3967854930664737  0.6702631249692206  0.5170068027210897  1.0000
  Al  Al27      1.0  0.48088134383247993  0.6981848711485402  0.06462585034013761  1.0000
  P   P27       1.0  0.3860887624693083  0.6633003249538766  0.05782312925170223  1.0000
  Al  Al28      1.0  0.4682228768707094  0.6965527425691163  0.6054421768707507  1.0000
  P   P28       1.0  0.37586011758104015  0.6556664888754873  0.5986394557823154  1.0000
  Al  Al29      1.0  0.4556949889240485  0.6941129366100446  0.14625850340136334  1.0000
  P   P29       1.0  0.36614159009755287  0.6473929858039514  0.139455782312928  1.0000
  Al  Al30      1.0  0.44334915977129385  0.6908754789573479  0.6870748299319742  1.0000
  P   P30       1.0  0.3569731155328936  0.6385138133380508  0.6802721088435387  1.0000
  Al  Al31      1.0  0.4312361210726061  0.6868536730189538  0.2278911564625867  1.0000
  P   P31       1.0  0.3483923691156802  0.6290654579020244  0.22108843537415132  1.0000
  Al  Al32      1.0  0.4194056479022368  0.6820640452581375  0.7687074829931974  1.0000
  P   P32       1.0  0.34043461097350536  0.6190867448150247  0.7619047619047622  1.0000
  Al  Al33      1.0  0.4079063542120714  0.6765262772827404  0.3095238095238101  1.0000
  P   P33       1.0  0.33313254124150893  0.6086186787495532  0.3027210884353747  1.0000
  Al  Al34      1.0  0.3967854930664737  0.6702631249692206  0.8503401360544232  1.0000
  P   P34       1.0  0.3265161656905088  0.5977042752344665  0.843537414965988  1.0000
  Al  Al35      1.0  0.3860887624693083  0.6633003249538766  0.3911564625850335  1.0000
  P   P35       1.0  0.32061267242685215  0.58638838389494  0.3843537414965981  1.0000
  Al  Al36      1.0  0.37586011758104015  0.6556664888754873  0.9319727891156466  1.0000
  P   P36       1.0  0.31544632017065466  0.5747175041557389  0.9251700680272114  1.0000
  Al  Al37      1.0  0.366141590097553  0.6473929858039514  0.4727891156462592  1.0000
  P   P37       1.0  0.31103833857151614  0.5627395941651075  0.4659863945578238  1.0000
  Al  Al38      1.0  0.3569731155328936  0.6385138133380508  0.013605442176871808  1.0000
  P   P38       1.0  0.30740684097133647  0.550503873724451  0.006802721088436432  1.0000
  Al  Al39      1.0  0.3483923691156803  0.6290654579020244  0.554421768707485  1.0000
  P   P39       1.0  0.30456674997270866  0.5380606220336138  0.5476190476190497  1.0000
  Al  Al40      1.0  0.34043461097350536  0.6190867448150247  0.09523809523809518  1.0000
  P   P40       1.0  0.3025297361187437  0.5254609710828625  0.08843537414965981  1.0000
  Al  Al41      1.0  0.333132541241509  0.6086186787495533  0.636054421768706  1.0000
  P   P41       1.0  0.30130416993630554  0.5127566955405707  0.6292517006802706  1.0000
  Al  Al42      1.0  0.32651616569050884  0.5977042752344666  0.1768707482993233  1.0000
  P   P42       1.0  0.300895087539721  0.5  0.17006802721088796  1.0000
  Al  Al43      1.0  0.32061267242685215  0.58638838389494  0.717687074829934  1.0000
  P   P43       1.0  0.30130416993630554  0.4872433044594293  0.7108843537414988  1.0000
  Al  Al44      1.0  0.31544632017065466  0.574717504155739  0.2585034013605419  1.0000
  P   P44       1.0  0.3025297361187437  0.4745390289171375  0.2517006802721065  1.0000
  Al  Al45      1.0  0.31103833857151614  0.5627395941651075  0.7993197278911575  1.0000
  P   P45       1.0  0.30456674997270866  0.4619393779663863  0.7925170068027222  1.0000
  Al  Al46      1.0  0.3074068409713365  0.5505038737244511  0.34013605442177003  1.0000
  P   P46       1.0  0.30740684097133647  0.44949612627554913  0.33333333333333465  1.0000
  Al  Al47      1.0  0.30456674997270866  0.5380606220336138  0.8809523809523808  1.0000
  P   P47       1.0  0.31103833857151614  0.4372604058348925  0.8741496598639453  1.0000
  Al  Al48      1.0  0.3025297361187437  0.5254609710828626  0.4217687074829982  1.0000
  P   P48       1.0  0.31544632017065466  0.4252824958442612  0.41496598639456284  1.0000
  Al  Al49      1.0  0.30130416993630554  0.5127566955405707  0.9625850340136091  1.0000
  P   P49       1.0  0.32061267242685215  0.4136116161050601  0.9557823129251735  1.0000
  Al  Al50      1.0  0.300895087539721  0.5  0.5034013605442168  1.0000
  P   P50       1.0  0.3265161656905088  0.40229572476553355  0.4965986394557814  1.0000
  Al  Al51      1.0  0.30130416993630554  0.48724330445942937  0.04421768707483415  1.0000
  P   P51       1.0  0.3331325412415089  0.3913813212504468  0.03741496598639878  1.0000
  Al  Al52      1.0  0.3025297361187437  0.4745390289171375  0.5850340136054449  1.0000
  P   P52       1.0  0.34043461097350536  0.3809132551849754  0.5782312925170096  1.0000
  Al  Al53      1.0  0.30456674997270866  0.4619393779663864  0.1258503401360575  1.0000
  P   P53       1.0  0.34839236911568017  0.37093454209797566  0.11904761904762215  1.0000
  Al  Al54      1.0  0.30740684097133647  0.44949612627554913  0.6666666666666731  1.0000
  P   P54       1.0  0.3569731155328936  0.3614861866619492  0.6598639455782377  1.0000
  Al  Al55      1.0  0.3110383385715161  0.4372604058348926  0.2074829931972809  1.0000
  P   P55       1.0  0.3661415900975528  0.3526070141960487  0.2006802721088455  1.0000
  Al  Al56      1.0  0.31544632017065466  0.4252824958442612  0.7482993197278917  1.0000
  P   P56       1.0  0.3758601175810401  0.34433351112451277  0.7414965986394562  1.0000
  Al  Al57      1.0  0.32061267242685215  0.4136116161050601  0.289115646258509  1.0000
  P   P57       1.0  0.3860887624693081  0.33669967504612347  0.2823129251700736  1.0000
  Al  Al58      1.0  0.3265161656905088  0.4022957247655336  0.8299319727891199  1.0000
  P   P58       1.0  0.39678549306647365  0.3297368750307795  0.8231292517006843  1.0000
  Al  Al59      1.0  0.3331325412415089  0.3913813212504468  0.37074829931972764  1.0000
  P   P59       1.0  0.4079063542120714  0.32347372271725977  0.36394557823129225  1.0000
  Al  Al60      1.0  0.3404346109735053  0.3809132551849755  0.9115646258503385  1.0000
  P   P60       1.0  0.4194056479022366  0.3179359547418626  0.904761904761903  1.0000
  Al  Al61      1.0  0.34839236911568017  0.37093454209797566  0.4523809523809557  1.0000
  P   P61       1.0  0.43123612107260595  0.31314632698104633  0.44557823129252033  1.0000
  Al  Al62      1.0  0.35697311553289357  0.3614861866619493  0.9931972789115664  1.0000
  P   P62       1.0  0.4433491597712937  0.30912452104265215  0.9863945578231311  1.0000
  Al  Al63      1.0  0.3661415900975528  0.3526070141960487  0.5340136054421791  1.0000
  P   P63       1.0  0.45569498892404847  0.3058870633899554  0.5272108843537437  1.0000
  Al  Al64      1.0  0.3758601175810401  0.34433351112451277  0.07482993197279171  1.0000
  P   P64       1.0  0.46822287687070924  0.3034472574308838  0.06802721088435634  1.0000
  Al  Al65      1.0  0.3860887624693081  0.33669967504612347  0.6156462585034025  1.0000
  P   P65       1.0  0.48088134383247977  0.3018151288514597  0.6088435374149671  1.0000
  Al  Al66      1.0  0.39678549306647365  0.3297368750307795  0.15646258503401508  1.0000
  P   P66       1.0  0.4936183734533816  0.30099738441810653  0.14965986394557973  1.0000
  Al  Al67      1.0  0.4079063542120714  0.32347372271725977  0.6972789115646307  1.0000
  P   P67       1.0  0.5063816265466182  0.30099738441810653  0.6904761904761951  1.0000
  Al  Al68      1.0  0.4194056479022366  0.3179359547418626  0.23809523809523844  1.0000
  P   P68       1.0  0.51911865616752  0.3018151288514597  0.23129251700680306  1.0000
  Al  Al69      1.0  0.43123612107260595  0.31314632698104633  0.7789115646258493  1.0000
  P   P69       1.0  0.5317771231292906  0.3034472574308838  0.7721088435374138  1.0000
  Al  Al70      1.0  0.4433491597712937  0.30912452104265215  0.3197278911564666  1.0000
  P   P70       1.0  0.5443050110759513  0.3058870633899554  0.3129251700680312  1.0000
  Al  Al71      1.0  0.45569498892404847  0.3058870633899554  0.8605442176870776  1.0000
  P   P71       1.0  0.5566508402287061  0.30912452104265203  0.853741496598642  1.0000
  Al  Al72      1.0  0.46822287687070924  0.3034472574308838  0.40136054421768996  1.0000
  P   P72       1.0  0.5687638789273939  0.3131463269810462  0.3945578231292546  1.0000
  Al  Al73      1.0  0.48088134383247977  0.3018151288514597  0.9421768707483007  1.0000
  P   P73       1.0  0.5805943520977632  0.3179359547418625  0.9353741496598654  1.0000
  Al  Al74      1.0  0.4936183734533818  0.30099738441810653  0.4829931972789133  1.0000
  P   P74       1.0  0.5920936457879286  0.32347372271725966  0.47619047619047794  1.0000
  Al  Al75      1.0  0.5063816265466182  0.30099738441810653  0.02380952380952592  1.0000
  P   P75       1.0  0.6032145069335263  0.32973687503077936  0.017006802721090546  1.0000
  Al  Al76      1.0  0.51911865616752  0.3018151288514597  0.5646258503401367  1.0000
  P   P76       1.0  0.6139112375306917  0.33669967504612336  0.5578231292517013  1.0000
  Al  Al77      1.0  0.5317771231292906  0.3034472574308838  0.10544217687075406  1.0000
  P   P77       1.0  0.6241398824189597  0.3443335111245126  0.0986394557823187  1.0000
  Al  Al78      1.0  0.5443050110759515  0.3058870633899554  0.6462585034013648  1.0000
  P   P78       1.0  0.633858409902447  0.35260701419604856  0.6394557823129294  1.0000
  Al  Al79      1.0  0.5566508402287061  0.30912452104265203  0.18707482993197266  1.0000
  P   P79       1.0  0.6430268844671063  0.36148618666194915  0.18027210884353728  1.0000
  Al  Al80      1.0  0.5687638789273939  0.3131463269810462  0.7278911564625884  1.0000
  P   P80       1.0  0.6516076308843196  0.3709345420979755  0.7210884353741528  1.0000
  Al  Al81      1.0  0.5805943520977632  0.3179359547418625  0.268707482993196  1.0000
  P   P81       1.0  0.6595653890264945  0.38091325518497515  0.26190476190476064  1.0000
  Al  Al82      1.0  0.5920936457879286  0.32347372271725966  0.8095238095238115  1.0000
  P   P82       1.0  0.6668674587584911  0.39138132125044667  0.8027210884353763  1.0000
  Al  Al83      1.0  0.6032145069335263  0.32973687503077936  0.35034013605442893  1.0000
  P   P83       1.0  0.6734838343094911  0.4022957247655334  0.34353741496599355  1.0000
  Al  Al84      1.0  0.6139112375306917  0.33669967504612336  0.8911564625850349  1.0000
  P   P84       1.0  0.6793873275731478  0.4136116161050598  0.8843537414965996  1.0000
  Al  Al85      1.0  0.6241398824189599  0.34433351112451277  0.43197278911565234  1.0000
  P   P85       1.0  0.6845536798293453  0.42528249584426103  0.42517006802721696  1.0000
  Al  Al86      1.0  0.633858409902447  0.35260701419604856  0.9727891156462679  1.0000
  P   P86       1.0  0.6889616614284839  0.4372604058348924  0.9659863945578326  1.0000
  Al  Al87      1.0  0.6430268844671063  0.36148618666194915  0.5136054421768661  1.0000
  P   P87       1.0  0.6925931590286635  0.44949612627554886  0.5068027210884307  1.0000
  Al  Al88      1.0  0.6516076308843196  0.3709345420979755  0.05442176870748349  1.0000
  P   P88       1.0  0.6954332500272914  0.46193937796638607  0.047619047619048116  1.0000
  Al  Al89      1.0  0.6595653890264946  0.3809132551849753  0.595238095238099  1.0000
  P   P89       1.0  0.6974702638812563  0.47453902891713734  0.5884353741496636  1.0000
  Al  Al90      1.0  0.6668674587584911  0.39138132125044667  0.13605442176870686  1.0000
  P   P90       1.0  0.6986958300636945  0.48724330445942915  0.1292517006802715  1.0000
  Al  Al91      1.0  0.6734838343094911  0.4022957247655334  0.6768707482993223  1.0000
  P   P91       1.0  0.699104912460279  0.4999999999999998  0.670068027210887  1.0000
  Al  Al92      1.0  0.6793873275731479  0.41361161610506  0.2176870748299398  1.0000
  P   P92       1.0  0.6986958300636945  0.5127566955405706  0.2108843537415044  1.0000
  Al  Al93      1.0  0.6845536798293453  0.42528249584426103  0.7585034013605457  1.0000
  P   P93       1.0  0.6974702638812563  0.5254609710828624  0.7517006802721105  1.0000
  Al  Al94      1.0  0.6889616614284839  0.4372604058348924  0.2993197278911631  1.0000
  P   P94       1.0  0.6954332500272914  0.5380606220336136  0.29251700680272774  1.0000
  Al  Al95      1.0  0.6925931590286635  0.44949612627554886  0.8401360544217786  1.0000
  P   P95       1.0  0.6925931590286637  0.5505038737244508  0.8333333333333435  1.0000
  Al  Al96      1.0  0.6954332500272914  0.46193937796638623  0.380952380952377  1.0000
  P   P96       1.0  0.6889616614284839  0.5627395941651074  0.3741496598639416  1.0000
  Al  Al97      1.0  0.6974702638812563  0.47453902891713734  0.9217687074829926  1.0000
  P   P97       1.0  0.6845536798293455  0.5747175041557387  0.9149659863945571  1.0000
  Al  Al98      1.0  0.6986958300636945  0.48724330445942915  0.46258503401360984  1.0000
  P   P98       1.0  0.679387327573148  0.5863883838949397  0.45578231292517446  1.0000
