data_image0
_chemical_formula_structural       AlPAlPAlPAlPAlPAlPAlPAlPAlPAlPAlPAlPAlPAlPAlPAlPAlPAlPAlPAlPAlPAlPAlPAlPAlPAlPAlPAlPAlPAlPAlPAlPAlPAlPAlPAlPAlPAlPAlPAlPAlPAlPAlPAlPAlPAlPAlPAlPAlPAlPAlPAlPAlPAlPAlPAlPAlPAlPAlPAlPAlPAlPAlPAlPAlPAlPAlPAlPAlPAlPAlPAlPAlPAlPAlPAlPAlPAlPAlPAlPAlPAlPAlPAlPAlPAlPAlPAlPAlPAlPAlPAlPAlPAlPAlPAlPAlPAlPAlPAlPAlPAlPAlPAlPAlPAlPAlPAlPAlPAlPAlPAlPAlPAlPAlPAlPAlPAlPAlPAlPAlPAlPAlPAlPAlPAlPAlPAlPAlPAlPAlPAlPAlPAlPAlPAlPAlPAlPAlPAlPAlPAlPAlPAlPAlPAlPAlPAlPAlPAlPAlPAlPAlPAlPAlPAlPAlPAlPAlPAlPAlPAlPAlPAlPAlPAlPAlPAlPAlPAlPAlPAlPAlPAlPAlPAlPAlPAlPAlPAlPAlPAlPAlPAlPAlPAlPAlPAlPAlPAlPAlPAlPAlPAlPAlPAlPAlPAlPAlPAlPAlPAlPAlPAlPAlPAlPAlPAlPAlPAlPAlPAlPAlPAlPAlPAlPAlPAlP
_chemical_formula_sum              "Al218 P218"
_cell_length_a       22.0
_cell_length_b       22.0
_cell_length_c       71.09848732568084
_cell_angle_alpha    90.0
_cell_angle_beta     90.0
_cell_angle_gamma    90.0

_space_group_name_H-M_alt    "P 1"
_space_group_IT_number       1

loop_
  _space_group_symop_operation_xyz
  'x, y, z'

loop_
  _atom_site_type_symbol
  _atom_site_label
  _atom_site_symmetry_multiplicity
  _atom_site_fract_x
  _atom_site_fract_y
  _atom_site_fract_z
  _atom_site_occupancy
  Al  Al1       1.0  0.7969594733593023  0.5  0.0015290519877675982  1.0000
  P   P1        1.0  0.7793744536239693  0.6006719597511779  0.9984709480122324  1.0000
  Al  Al2       1.0  0.7968361390591595  0.5085577664308802  0.5290519877675841  1.0000
  P   P2        1.0  0.7763572622198044  0.608681150326119  0.5259938837920489  1.0000
  Al  Al3       1.0  0.7964662386060409  0.5171084243757332  0.05657492354740055  1.0000
  P   P3        1.0  0.7731105153874882  0.6166000651912971  0.05351681957186538  1.0000
  Al  Al4       1.0  0.7958500792567786  0.5256448712531764  0.5840978593272169  1.0000
  P   P4        1.0  0.7696369100286808  0.6244221265210463  0.5810397553516817  1.0000
  Al  Al5       1.0  0.7949881728225047  0.5341600162862131  0.1116207951070335  1.0000
  P   P5        1.0  0.7659393314844763  0.6321408369408336  0.10856269113149833  1.0000
  Al  Al6       1.0  0.7938812352435164  0.5426467863921672  0.6391437308868502  1.0000
  P   P6        1.0  0.7620208511387025  0.6397497849242855  0.636085626911315  1.0000
  Al  Al7       1.0  0.7925301859945832  0.5510981320579208  0.16666666666666605  1.0000
  P   P7        1.0  0.7578847238666836  0.6472426501189059  0.1636085626911309  1.0000
  Al  Al8       1.0  0.7909361473211866  0.559507033195573  0.6941896024464831  1.0000
  P   P8        1.0  0.7535343853315868  0.6546132085960598  0.6911314984709479  1.0000
  Al  Al9       1.0  0.7891004433073299  0.5678665049736582  0.22171253822629938  1.0000
  P   P9        1.0  0.7489734491305978  0.661855338020863  0.21865443425076422  1.0000
  Al  Al10      1.0  0.7870245987756916  0.5761696036190773  0.7492354740061157  1.0000
  P   P10       1.0  0.7442057037932961  0.668963022737684  0.7461773700305805  1.0000
  Al  Al11      1.0  0.7847103380210363  0.5844094321849248  0.2767584097859328  1.0000
  P   P11       1.0  0.7392351096347224  0.6759303587670318  0.2737003058103976  1.0000
  Al  Al12      1.0  0.782159583377932  0.5925791462794188  0.8042813455657489  1.0000
  P   P12       1.0  0.7340657954657541  0.6827515587096809  0.8012232415902137  1.0000
  Al  Al13      1.0  0.7793744536239693  0.6006719597511779  0.3318042813455645  1.0000
  P   P13       1.0  0.7287020551635187  0.6894209565539595  0.32874617737002937  1.0000
  Al  Al14      1.0  0.7763572622198044  0.608681150326119  0.8593272171253815  1.0000
  P   P14       1.0  0.7231483441046967  0.695933012382207  0.8562691131498463  1.0000
  Al  Al15      1.0  0.7731105153874882  0.6166000651912971  0.38685015290519864  1.0000
  P   P15       1.0  0.7174092754646745  0.7022823169724914  0.3837920489296635  1.0000
  Al  Al16      1.0  0.7696369100286808  0.6244221265210463  0.914373088685014  1.0000
  P   P16       1.0  0.7114896163856226  0.7084635962917659  0.9113149847094789  1.0000
  Al  Al17      1.0  0.7659393314844763  0.6321408369408336  0.44189602446483117  1.0000
  P   P17       1.0  0.7053942840166816  0.7144717158767303  0.43883792048929604  1.0000
  Al  Al18      1.0  0.7620208511387025  0.6397497849242855  0.9694189602446482  1.0000
  P   P18       1.0  0.6991283414295449  0.7203016850987589  0.9663608562691128  1.0000
  Al  Al19      1.0  0.7578847238666836  0.6472426501189059  0.4969418960244637  1.0000
  P   P19       1.0  0.6926969934128325  0.7259486613093535  0.4938837920489285  1.0000
  Al  Al20      1.0  0.7535343853315868  0.6546132085960598  0.024464831804280895  1.0000
  P   P20       1.0  0.6861055821487458  0.7314079538626763  0.021406727828745725  1.0000
  Al  Al21      1.0  0.7489734491305978  0.661855338020863  0.551987767584098  1.0000
  P   P21       1.0  0.6793595827755997  0.7366750280118225  0.5489296636085628  1.0000
  Al  Al22      1.0  0.7442057037932961  0.668963022737684  0.07951070336391344  1.0000
  P   P22       1.0  0.6724645988399117  0.7417455086755957  0.07645259938837827  1.0000
  Al  Al23      1.0  0.7392351096347224  0.6759303587670318  0.6070336391437305  1.0000
  P   P23       1.0  0.6654263576418322  0.7466151840726577  0.6039755351681954  1.0000
  Al  Al24      1.0  0.7340657954657541  0.6827515587096809  0.134556574923546  1.0000
  P   P24       1.0  0.6582507054777773  0.7512800092200332  0.13149847094801081  1.0000
  Al  Al25      1.0  0.7287020551635187  0.6894209565539595  0.6620795107033615  1.0000
  P   P25       1.0  0.6509436027842181  0.7557361092930648  0.6590214067278263  1.0000
  Al  Al26      1.0  0.7231483441046967  0.695933012382207  0.18960244648317856  1.0000
  P   P26       1.0  0.6435111191866598  0.7599797828440251  0.18654434250764337  1.0000
  Al  Al27      1.0  0.7174092754646745  0.7022823169724914  0.7171253822629956  1.0000
  P   P27       1.0  0.6359594284579239  0.7640075048767152  0.7140672782874604  1.0000
  Al  Al28      1.0  0.7114896163856227  0.7084635962917659  0.24464831804281273  1.0000
  P   P28       1.0  0.6282948033899195  0.7678159297744929  0.24159021406727757  1.0000
  Al  Al29      1.0  0.7053942840166816  0.7144717158767303  0.7721712538226297  1.0000
  P   P29       1.0  0.6205236105831659  0.7714018940793  0.7691131498470946  1.0000
  Al  Al30      1.0  0.6991283414295449  0.7203016850987589  0.29969418960244526  1.0000
  P   P30       1.0  0.6126523051583916  0.7747624191193817  0.29663608562691013  1.0000
  Al  Al31      1.0  0.6926969934128325  0.7259486613093535  0.8272171253822622  1.0000
  P   P31       1.0  0.6046874253946076  0.7778947134835109  0.824159021406727  1.0000
  Al  Al32      1.0  0.686105582148746  0.7314079538626763  0.3547400611620778  1.0000
  P   P32       1.0  0.5966355872981007  0.7807961753396676  0.35168195718654266  1.0000
  Al  Al33      1.0  0.6793595827755997  0.7366750280118225  0.8822629969418948  1.0000
  P   P33       1.0  0.5885034791068668  0.7834643945962431  0.8792048929663596  1.0000
  Al  Al34      1.0  0.6724645988399117  0.7417455086755957  0.4097859327217104  1.0000
  P   P34       1.0  0.5802978557350437  0.7858971549039764  0.40672782874617525  1.0000
  Al  Al35      1.0  0.6654263576418323  0.7466151840726577  0.9373088685015272  1.0000
  P   P35       1.0  0.572025533161959  0.7880924354969594  0.9342507645259922  1.0000
  Al  Al36      1.0  0.6582507054777773  0.7512800092200332  0.4648318042813461  1.0000
  P   P36       1.0  0.5636933827704557  0.7900484128711799  0.4617737003058109  1.0000
  Al  Al37      1.0  0.6509436027842181  0.7557361092930648  0.99235474006116  1.0000
  P   P37       1.0  0.555308325639195  0.7917634622992107  0.9892966360856246  1.0000
  Al  Al38      1.0  0.6435111191866598  0.7599797828440251  0.5198776758409756  1.0000
  P   P38       1.0  0.5468773267936822  0.7932361591797856  0.5168195718654403  1.0000
  Al  Al39      1.0  0.6359594284579239  0.7640075048767152  0.04740061162079419  1.0000
  P   P39       1.0  0.5384073894207854  0.7944652802211397  0.04434250764525902  1.0000
  Al  Al40      1.0  0.6282948033899195  0.7678159297744929  0.5749235474006112  1.0000
  P   P40       1.0  0.5299055490515576  0.7954498044571345  0.5718654434250761  1.0000
  Al  Al41      1.0  0.6205236105831659  0.7714018940793  0.10244648318042675  1.0000
  P   P41       1.0  0.5213788677171911  0.7961889140953203  0.09938837920489157  1.0000
  Al  Al42      1.0  0.6126523051583918  0.7747624191193817  0.6299694189602437  1.0000
  P   P42       1.0  0.5128344280829602  0.7966819951962328  0.6269113149847085  1.0000
  Al  Al43      1.0  0.6046874253946076  0.7778947134835109  0.1574923547400593  1.0000
  P   P43       1.0  0.5042793275650239  0.7969286381833611  0.15443425076452413  1.0000
  Al  Al44      1.0  0.5966355872981007  0.7807961753396676  0.6850152905198763  1.0000
  P   P44       1.0  0.49572067243497614  0.7969286381833611  0.6819571865443411  1.0000
  Al  Al45      1.0  0.5885034791068668  0.7834643945962431  0.21253822629969185  1.0000
  P   P45       1.0  0.48716557191703985  0.7966819951962328  0.2094801223241567  1.0000
  Al  Al46      1.0  0.5802978557350437  0.7858971549039764  0.7400611620795089  1.0000
  P   P46       1.0  0.4786211322828089  0.7961889140953203  0.7370030581039736  1.0000
  Al  Al47      1.0  0.572025533161959  0.7880924354969594  0.2675840978593244  1.0000
  P   P47       1.0  0.47009445094844243  0.7954498044571345  0.2645259938837892  1.0000
  Al  Al48      1.0  0.5636933827704557  0.7900484128711799  0.7951070336391414  1.0000
  P   P48       1.0  0.46159261057921475  0.7944652802211397  0.7920489296636062  1.0000
  Al  Al49      1.0  0.5553083256391951  0.7917634622992107  0.32262996941895694  1.0000
  P   P49       1.0  0.4531226732063178  0.7932361591797856  0.31957186544342175  1.0000
  Al  Al50      1.0  0.5468773267936822  0.7932361591797856  0.8501529051987741  1.0000
  P   P50       1.0  0.4446916743608051  0.7917634622992107  0.8470948012232388  1.0000
  Al  Al51      1.0  0.5384073894207854  0.7944652802211397  0.3776758409785895  1.0000
  P   P51       1.0  0.4363066172295444  0.7900484128711799  0.37461773700305434  1.0000
  Al  Al52      1.0  0.5299055490515576  0.7954498044571345  0.9051987767584065  1.0000
  P   P52       1.0  0.4279744668380411  0.7880924354969594  0.9021406727828711  1.0000
  Al  Al53      1.0  0.5213788677171911  0.7961889140953203  0.4327217125382252  1.0000
  P   P53       1.0  0.4197021442649564  0.7858971549039764  0.4296636085626901  1.0000
  Al  Al54      1.0  0.5128344280829602  0.7966819951962328  0.9602446483180421  1.0000
  P   P54       1.0  0.41149652089313327  0.7834643945962431  0.957186544342507  1.0000
  Al  Al55      1.0  0.5042793275650239  0.7969286381833611  0.4877675840978578  1.0000
  P   P55       1.0  0.4033644127018995  0.7807961753396676  0.4847094801223226  1.0000
  Al  Al56      1.0  0.49572067243497614  0.7969286381833611  0.015290519877673337  1.0000
  P   P56       1.0  0.3953125746053924  0.777894713483511  0.01223241590213817  1.0000
  Al  Al57      1.0  0.48716557191703985  0.7966819951962328  0.5428134556574936  1.0000
  P   P57       1.0  0.38734769484160836  0.7747624191193817  0.5397553516819584  1.0000
  Al  Al58      1.0  0.47862113228280895  0.7961889140953203  0.07033639143730909  1.0000
  P   P58       1.0  0.37947638941683426  0.7714018940793  0.06727828746177392  1.0000
  Al  Al59      1.0  0.47009445094844243  0.7954498044571345  0.5978593272171229  1.0000
  P   P59       1.0  0.37170519661008056  0.7678159297744929  0.5948012232415877  1.0000
  Al  Al60      1.0  0.46159261057921464  0.7944652802211397  0.12538226299693844  1.0000
  P   P60       1.0  0.36404057154207603  0.7640075048767152  0.12232415902140326  1.0000
  Al  Al61      1.0  0.4531226732063178  0.7932361591797856  0.6529051987767522  1.0000
  P   P61       1.0  0.3564888808133402  0.7599797828440252  0.649847094801217  1.0000
  Al  Al62      1.0  0.4446916743608051  0.7917634622992107  0.1804281345565742  1.0000
  P   P62       1.0  0.349056397215782  0.7557361092930648  0.177370030581039  1.0000
  Al  Al63      1.0  0.4363066172295445  0.7900484128711799  0.7079510703363879  1.0000
  P   P63       1.0  0.3417492945222227  0.7512800092200332  0.7048929663608527  1.0000
  Al  Al64      1.0  0.4279744668380411  0.7880924354969594  0.23547400611620992  1.0000
  P   P64       1.0  0.3345736423581679  0.7466151840726577  0.23241590214067478  1.0000
  Al  Al65      1.0  0.41970214426495644  0.7858971549039765  0.7629969418960237  1.0000
  P   P65       1.0  0.32753540116008834  0.7417455086755957  0.7599388379204886  1.0000
  Al  Al66      1.0  0.41149652089313327  0.7834643945962431  0.2905198776758329  1.0000
  P   P66       1.0  0.32064041722440034  0.7366750280118227  0.2874617737002978  1.0000
  Al  Al67      1.0  0.40336441270189943  0.7807961753396676  0.8180428134556531  1.0000
  P   P67       1.0  0.31389441785125405  0.7314079538626763  0.8149847094801179  1.0000
  Al  Al68      1.0  0.3953125746053924  0.777894713483511  0.3455657492354687  1.0000
  P   P68       1.0  0.3073030065871676  0.7259486613093536  0.3425076452599335  1.0000
  Al  Al69      1.0  0.38734769484160836  0.7747624191193817  0.8730886850152889  1.0000
  P   P69       1.0  0.3008716585704551  0.720301685098759  0.8700305810397537  1.0000
  Al  Al70      1.0  0.37947638941683437  0.7714018940793  0.4006116207951044  1.0000
  P   P70       1.0  0.2946057159833185  0.7144717158767303  0.39755351681956924  1.0000
  Al  Al71      1.0  0.37170519661008056  0.7678159297744929  0.9281345565749246  1.0000
  P   P71       1.0  0.2885103836143775  0.7084635962917659  0.9250764525993892  1.0000
  Al  Al72      1.0  0.36404057154207603  0.7640075048767152  0.4556574923547402  1.0000
  P   P72       1.0  0.2825907245353255  0.7022823169724914  0.452599388379205  1.0000
  Al  Al73      1.0  0.3564888808133402  0.7599797828440252  0.9831804281345542  1.0000
  P   P73       1.0  0.27685165589530336  0.695933012382207  0.9801223241590188  1.0000
  Al  Al74      1.0  0.349056397215782  0.7557361092930648  0.5107033639143695  1.0000
  P   P74       1.0  0.2712979448364814  0.6894209565539596  0.5076452599388344  1.0000
  Al  Al75      1.0  0.3417492945222227  0.7512800092200332  0.038226299694185034  1.0000
  P   P75       1.0  0.2659342045342459  0.6827515587096809  0.03516819571864987  1.0000
  Al  Al76      1.0  0.3345736423581679  0.7466151840726577  0.5657492354740052  1.0000
  P   P76       1.0  0.2607648903652776  0.6759303587670319  0.56269113149847  1.0000
  Al  Al77      1.0  0.32753540116008834  0.7417455086755957  0.09327217125382078  1.0000
  P   P77       1.0  0.25579429620670396  0.668963022737684  0.09021406727828561  1.0000
  Al  Al78      1.0  0.32064041722440034  0.7366750280118227  0.6207951070336346  1.0000
  P   P78       1.0  0.2510265508694023  0.6618553380208632  0.6177370030580994  1.0000
  Al  Al79      1.0  0.31389441785125405  0.7314079538626763  0.14831804281345012  1.0000
  P   P79       1.0  0.24646561466841327  0.6546132085960598  0.14525993883791496  1.0000
  Al  Al80      1.0  0.3073030065871676  0.7259486613093536  0.675840978593264  1.0000
  P   P80       1.0  0.24211527613331646  0.6472426501189059  0.6727828746177287  1.0000
  Al  Al81      1.0  0.3008716585704551  0.720301685098759  0.2033639143730859  1.0000
  P   P81       1.0  0.2379791488612975  0.6397497849242856  0.20030581039755072  1.0000
  Al  Al82      1.0  0.2946057159833185  0.7144717158767303  0.7308868501528998  1.0000
  P   P82       1.0  0.23406066851552365  0.6321408369408336  0.7278287461773646  1.0000
  Al  Al83      1.0  0.2885103836143775  0.7084635962917659  0.2584097859327216  1.0000
  P   P83       1.0  0.23036308997131918  0.6244221265210463  0.2553516819571865  1.0000
  Al  Al84      1.0  0.2825907245353255  0.7022823169724914  0.7859327217125355  1.0000
  P   P84       1.0  0.2268894846125118  0.6166000651912971  0.7828746177370003  1.0000
  Al  Al85      1.0  0.27685165589530336  0.695933012382207  0.313455657492351  1.0000
  P   P85       1.0  0.2236427377801957  0.6086811503261191  0.31039755351681586  1.0000
  Al  Al86      1.0  0.2712979448364813  0.6894209565539595  0.8409785932721712  1.0000
  P   P86       1.0  0.22062554637603068  0.6006719597511779  0.837920489296636  1.0000
  Al  Al87      1.0  0.2659342045342459  0.6827515587096809  0.3685015290519803  1.0000
  P   P87       1.0  0.21784041662206804  0.5925791462794189  0.36544342507644517  1.0000
  Al  Al88      1.0  0.2607648903652776  0.6759303587670319  0.8960244648318005  1.0000
  P   P88       1.0  0.21528966197896374  0.5844094321849249  0.8929663608562654  1.0000
  Al  Al89      1.0  0.25579429620670396  0.668963022737684  0.4235474006116161  1.0000
  P   P89       1.0  0.2129754012243083  0.5761696036190774  0.420489296636081  1.0000
  Al  Al90      1.0  0.2510265508694023  0.6618553380208632  0.9510703363914363  1.0000
  P   P90       1.0  0.21089955669267027  0.5678665049736583  0.9480122324159013  1.0000
  Al  Al91      1.0  0.24646561466841327  0.6546132085960598  0.47859327217125186  1.0000
  P   P91       1.0  0.2090638526788135  0.559507033195573  0.4755351681957167  1.0000
  Al  Al92      1.0  0.24211527613331646  0.6472426501189059  0.006116207951060983  1.0000
  P   P92       1.0  0.20746981400541678  0.5510981320579209  0.003058103975525816  1.0000
  Al  Al93      1.0  0.23797914886129745  0.6397497849242855  0.5336391437308812  1.0000
  P   P93       1.0  0.20611876475648364  0.5426467863921672  0.530581039755346  1.0000
  Al  Al94      1.0  0.23406066851552365  0.6321408369408336  0.061162079510696736  1.0000
  P   P94       1.0  0.20501182717749541  0.5341600162862131  0.05810397553516156  1.0000
  Al  Al95      1.0  0.23036308997131918  0.6244221265210463  0.5886850152905169  1.0000
  P   P95       1.0  0.2041499207432214  0.5256448712531765  0.5856269113149817  1.0000
  Al  Al96      1.0  0.2268894846125118  0.6166000651912971  0.1162079510703325  1.0000
  P   P96       1.0  0.2035337613939591  0.5171084243757332  0.11314984709479732  1.0000
  Al  Al97      1.0  0.2236427377801957  0.6086811503261191  0.6437308868501462  1.0000
  P   P97       1.0  0.20316386094084052  0.5085577664308805  0.640672782874611  1.0000
  Al  Al98      1.0  0.22062554637603068  0.6006719597511779  0.17125382262996822  1.0000
  P   P98       1.0  0.20304052664069772  0.5  0.16819571865443306  1.0000
  Al  Al99      1.0  0.21784041662206804  0.5925791462794189  0.698776758409782  1.0000
  P   P99       1.0  0.20316386094084052  0.49144223356911987  0.6957186544342469  1.0000
  Al  Al100     1.0  0.21528966197896368  0.5844094321849248  0.22629969418959758  1.0000
  P   P100      1.0  0.2035337613939591  0.4828915756242669  0.22324159021406242  1.0000
  Al  Al101     1.0  0.2129754012243083  0.5761696036190774  0.7538226299694114  1.0000
  P   P101      1.0  0.2041499207432214  0.47435512874682373  0.7507645259938762  1.0000
  Al  Al102     1.0  0.21089955669267027  0.5678665049736583  0.2813455657492333  1.0000
  P   P102      1.0  0.20501182717749541  0.46583998371378704  0.2782874617736982  1.0000
  Al  Al103     1.0  0.2090638526788135  0.559507033195573  0.8088685015290472  1.0000
  P   P103      1.0  0.20611876475648358  0.45735321360783276  0.8058103975535119  1.0000
  Al  Al104     1.0  0.20746981400541678  0.5510981320579209  0.33639143730886273  1.0000
  P   P104      1.0  0.20746981400541673  0.4489018679420794  0.33333333333332754  1.0000
  Al  Al105     1.0  0.20611876475648364  0.5426467863921672  0.8639143730886829  1.0000
  P   P105      1.0  0.2090638526788135  0.4404929668044271  0.8608562691131477  1.0000
  Al  Al106     1.0  0.20501182717749541  0.5341600162862131  0.3914373088684984  1.0000
  P   P106      1.0  0.21089955669267021  0.43213349502634196  0.3883792048929633  1.0000
  Al  Al107     1.0  0.2041499207432214  0.5256448712531764  0.9189602446483188  1.0000
  P   P107      1.0  0.2129754012243083  0.42383039638092274  0.9159021406727834  1.0000
  Al  Al108     1.0  0.2035337613939591  0.5171084243757332  0.4464831804281278  1.0000
  P   P108      1.0  0.21528966197896365  0.41559056781507536  0.44342507645259266  1.0000
  Al  Al109     1.0  0.20316386094084052  0.5085577664308805  0.974006116207948  1.0000
  P   P109      1.0  0.21784041662206796  0.4074208537205814  0.970948012232413  1.0000
  Al  Al110     1.0  0.20304052664069772  0.5  0.5015290519877635  1.0000
  P   P110      1.0  0.22062554637603068  0.39932804024882224  0.4984709480122283  1.0000
  Al  Al111     1.0  0.20316386094084052  0.49144223356911987  0.029051987767579075  1.0000
  P   P111      1.0  0.22364273778019564  0.39131884967388114  0.02599388379204391  1.0000
  Al  Al112     1.0  0.2035337613939591  0.4828915756242669  0.5565749235473992  1.0000
  P   P112      1.0  0.22688948461251177  0.38339993480870294  0.553516819571864  1.0000
  Al  Al113     1.0  0.2041499207432214  0.47435512874682373  0.08409785932721484  1.0000
  P   P113      1.0  0.23036308997131916  0.3755778734789538  0.08103975535167966  1.0000
  Al  Al114     1.0  0.20501182717749541  0.46583998371378693  0.6116207951070223  1.0000
  P   P114      1.0  0.2340606685155236  0.3678591630591665  0.6085626911314871  1.0000
  Al  Al115     1.0  0.20611876475648358  0.45735321360783276  0.1391437308868506  1.0000
  P   P115      1.0  0.2379791488612974  0.36025021507571464  0.13608562691131543  1.0000
  Al  Al116     1.0  0.20746981400541673  0.4489018679420794  0.6666666666666708  1.0000
  P   P116      1.0  0.24211527613331638  0.35275734988109425  0.6636085626911357  1.0000
  Al  Al117     1.0  0.2090638526788135  0.4404929668044271  0.19418960244647354  1.0000
  P   P117      1.0  0.24646561466841327  0.3453867914039404  0.19113149847093835  1.0000
  Al  Al118     1.0  0.21089955669267021  0.43213349502634196  0.7217125382262938  1.0000
  P   P118      1.0  0.2510265508694022  0.3381446619791372  0.7186544342507586  1.0000
  Al  Al119     1.0  0.2129754012243083  0.42383039638092274  0.24923547400610926  1.0000
  P   P119      1.0  0.2557942962067039  0.331036977262316  0.2461773700305741  1.0000
  Al  Al120     1.0  0.21528966197896365  0.41559056781507536  0.7767584097859295  1.0000
  P   P120      1.0  0.2607648903652775  0.32406964123296833  0.7737003058103943  1.0000
  Al  Al121     1.0  0.21784041662206802  0.40742085372058123  0.30428134556574504  1.0000
  P   P121      1.0  0.2659342045342459  0.3172484412903192  0.3012232415902099  1.0000
  Al  Al122     1.0  0.22062554637603068  0.39932804024882224  0.8318042813455653  1.0000
  P   P122      1.0  0.2712979448364813  0.31057904344604054  0.8287461773700301  1.0000
  Al  Al123     1.0  0.22364273778019564  0.39131884967388114  0.3593272171253808  1.0000
  P   P123      1.0  0.27685165589530325  0.30406698761779316  0.35626911314984566  1.0000
  Al  Al124     1.0  0.22688948461251177  0.38339993480870294  0.8868501529051882  1.0000
  P   P124      1.0  0.28259072453532547  0.29771768302750873  0.883792048929653  1.0000
  Al  Al125     1.0  0.23036308997131916  0.3755778734789538  0.4143730886850037  1.0000
  P   P125      1.0  0.2885103836143773  0.29153640370823414  0.4113149847094686  1.0000
  Al  Al126     1.0  0.2340606685155236  0.3678591630591665  0.9418960244648241  1.0000
  P   P126      1.0  0.2946057159833184  0.28552828412326975  0.9388379204892887  1.0000
  Al  Al127     1.0  0.2379791488612974  0.36025021507571464  0.46941896024465224  1.0000
  P   P127      1.0  0.300871658570455  0.27969831490124114  0.46636085626911705  1.0000
  Al  Al128     1.0  0.24211527613331643  0.35275734988109414  0.9969418960244596  1.0000
  P   P128      1.0  0.30730300658716764  0.2740513386906464  0.9938837920489246  1.0000
  Al  Al129     1.0  0.24646561466841327  0.3453867914039404  0.5244648318042752  1.0000
  P   P129      1.0  0.31389441785125405  0.2685920461373237  0.52140672782874  1.0000
  Al  Al130     1.0  0.2510265508694022  0.3381446619791372  0.05198776758409077  1.0000
  P   P130      1.0  0.3206404172244003  0.2633249719881775  0.04892966360855561  1.0000
  Al  Al131     1.0  0.2557942962067039  0.331036977262316  0.5795107033638982  1.0000
  P   P131      1.0  0.3275354011600884  0.2582544913244043  0.576452599388363  1.0000
  Al  Al132     1.0  0.2607648903652775  0.32406964123296833  0.10703363914372653  1.0000
  P   P132      1.0  0.33457364235816767  0.25338481592734247  0.10397553516819136  1.0000
  Al  Al133     1.0  0.2659342045342459  0.3172484412903192  0.6345565749235468  1.0000
  P   P133      1.0  0.34174929452222264  0.24871999077996687  0.6314984709480116  1.0000
  Al  Al134     1.0  0.2712979448364813  0.31057904344604054  0.16207951070336227  1.0000
  P   P134      1.0  0.34905639721578197  0.24426389070693524  0.15902140672782708  1.0000
  Al  Al135     1.0  0.2768516558953033  0.3040669876177931  0.6896024464831697  1.0000
  P   P135      1.0  0.3564888808133403  0.2400202171559748  0.6865443425076345  1.0000
  Al  Al136     1.0  0.28259072453532547  0.29771768302750873  0.21712538226299802  1.0000
  P   P136      1.0  0.364040571542076  0.2359924951232848  0.21406727828746286  1.0000
  Al  Al137     1.0  0.2885103836143773  0.29153640370823414  0.7446483180428183  1.0000
  P   P137      1.0  0.37170519661008045  0.2321840702255072  0.741590214067283  1.0000
  Al  Al138     1.0  0.2946057159833184  0.28552828412326975  0.272171253822621  1.0000
  P   P138      1.0  0.37947638941683437  0.22859810592069998  0.26911314984708584  1.0000
  Al  Al139     1.0  0.300871658570455  0.27969831490124114  0.7996941896024412  1.0000
  P   P139      1.0  0.3873476948416082  0.22523758088061838  0.796636085626906  1.0000
  Al  Al140     1.0  0.3073030065871674  0.2740513386906466  0.3272171253822567  1.0000
  P   P140      1.0  0.3953125746053924  0.2221052865164891  0.3241590214067216  1.0000
  Al  Al141     1.0  0.31389441785125405  0.2685920461373237  0.8547400611620769  1.0000
  P   P141      1.0  0.4033644127018993  0.21920382466033242  0.8516819571865417  1.0000
  Al  Al142     1.0  0.3206404172244003  0.2633249719881775  0.3822629969418925  1.0000
  P   P142      1.0  0.4114965208931334  0.216535605403757  0.3792048929663573  1.0000
  Al  Al143     1.0  0.3275354011600884  0.2582544913244043  0.9097859327217126  1.0000
  P   P143      1.0  0.41970214426495656  0.21410284509602354  0.9067278287461776  1.0000
  Al  Al144     1.0  0.33457364235816767  0.25338481592734247  0.4373088685015282  1.0000
  P   P144      1.0  0.42797446683804097  0.21190756450304057  0.4342507645259931  1.0000
  Al  Al145     1.0  0.34174929452222264  0.24871999077996687  0.9648318042813357  1.0000
  P   P145      1.0  0.4363066172295445  0.20995158712882017  0.9617737003058003  1.0000
  Al  Al146     1.0  0.34905639721578197  0.24426389070693524  0.4923547400611512  1.0000
  P   P146      1.0  0.44469167436080514  0.2082365377007893  0.489296636085616  1.0000
  Al  Al147     1.0  0.35648888081334  0.24002021715597488  0.019877675840979513  1.0000
  P   P147      1.0  0.45312267320631777  0.2067638408202145  0.016819571865444347  1.0000
  Al  Al148     1.0  0.364040571542076  0.2359924951232848  0.5474006116207998  1.0000
  P   P148      1.0  0.46159261057921464  0.20553471977886034  0.5443425076452646  1.0000
  Al  Al149     1.0  0.37170519661008045  0.2321840702255072  0.07492354740060247  1.0000
  P   P149      1.0  0.47009445094844254  0.20455019554286544  0.0718654434250673  1.0000
  Al  Al150     1.0  0.37947638941683437  0.22859810592069998  0.6024464831804227  1.0000
  P   P150      1.0  0.4786211322828091  0.2038110859046797  0.5993883792048875  1.0000
  Al  Al151     1.0  0.3873476948416082  0.22523758088061838  0.12996941896023823  1.0000
  P   P151      1.0  0.4871655719170398  0.20331800480376722  0.12691131498470307  1.0000
  Al  Al152     1.0  0.3953125746053924  0.2221052865164891  0.6574923547400456  1.0000
  P   P152      1.0  0.49572067243497614  0.20307136181663887  0.6544342507645105  1.0000
  Al  Al153     1.0  0.4033644127018993  0.21920382466033242  0.18501529051987398  1.0000
  P   P153      1.0  0.504279327565024  0.20307136181663887  0.1819571865443388  1.0000
  Al  Al154     1.0  0.41149652089313304  0.21653560540375702  0.7125382262996942  1.0000
  P   P154      1.0  0.5128344280829601  0.20331800480376722  0.709480122324159  1.0000
  Al  Al155     1.0  0.4197021442649563  0.2141028450960236  0.24006116207949693  1.0000
  P   P155      1.0  0.5213788677171911  0.2038110859046797  0.23700305810396177  1.0000
  Al  Al156     1.0  0.42797446683804097  0.21190756450304057  0.7675840978593171  1.0000
  P   P156      1.0  0.5299055490515576  0.20455019554286544  0.764525993883782  1.0000
  Al  Al157     1.0  0.4363066172295445  0.20995158712882017  0.29510703363913265  1.0000
  P   P157      1.0  0.5384073894207856  0.20553471977886034  0.2920489296635975  1.0000
  Al  Al158     1.0  0.4446916743608049  0.20823653770078934  0.8226299694189528  1.0000
  P   P158      1.0  0.5468773267936821  0.2067638408202145  0.8195718654434176  1.0000
  Al  Al159     1.0  0.45312267320631777  0.2067638408202145  0.35015290519876846  1.0000
  P   P159      1.0  0.5553083256391951  0.2082365377007893  0.34709480122323333  1.0000
  Al  Al160     1.0  0.46159261057921464  0.20553471977886034  0.8776758409785886  1.0000
  P   P160      1.0  0.5636933827704557  0.20995158712882017  0.8746177370030535  1.0000
  Al  Al161     1.0  0.47009445094844227  0.20455019554286544  0.4051987767584042  1.0000
  P   P161      1.0  0.5720255331619589  0.21190756450304057  0.402140672782869  1.0000
  Al  Al162     1.0  0.4786211322828088  0.20381108590467975  0.9327217125382116  1.0000
  P   P162      1.0  0.5802978557350437  0.2141028450960236  0.9296636085626765  1.0000
  Al  Al163     1.0  0.4871655719170398  0.20331800480376722  0.46024464831803996  1.0000
  P   P163      1.0  0.5885034791068668  0.216535605403757  0.4571865443425048  1.0000
  Al  Al164     1.0  0.49572067243497614  0.20307136181663887  0.9877675840978603  1.0000
  P   P164      1.0  0.5966355872981007  0.21920382466033247  0.9847094801223248  1.0000
  Al  Al165     1.0  0.5042793275650237  0.20307136181663887  0.5152905198776757  1.0000
  P   P165      1.0  0.6046874253946076  0.22210528651648903  0.5122324159021405  1.0000
  Al  Al166     1.0  0.5128344280829601  0.20331800480376722  0.04281345565747842  1.0000
  P   P166      1.0  0.6126523051583918  0.22523758088061832  0.03975535168194325  1.0000
  Al  Al167     1.0  0.5213788677171911  0.2038110859046797  0.5703363914372986  1.0000
  P   P167      1.0  0.6205236105831659  0.22859810592070004  0.5672782874617635  1.0000
  Al  Al168     1.0  0.5299055490515574  0.20455019554286544  0.09785932721712697  1.0000
  P   P168      1.0  0.6282948033899195  0.23218407022550716  0.09480122324159179  1.0000
  Al  Al169     1.0  0.5384073894207853  0.20553471977886031  0.6253822629969343  1.0000
  P   P169      1.0  0.6359594284579239  0.23599249512328474  0.6223241590213991  1.0000
  Al  Al170     1.0  0.5468773267936821  0.2067638408202145  0.15290519877674993  1.0000
  P   P170      1.0  0.6435111191866599  0.24002021715597488  0.14984709480121475  1.0000
  Al  Al171     1.0  0.5553083256391951  0.2082365377007893  0.6804281345565701  1.0000
  P   P171      1.0  0.6509436027842181  0.24426389070693533  0.677370030581035  1.0000
  Al  Al172     1.0  0.5636933827704554  0.20995158712882014  0.20795107033638566  1.0000
  P   P172      1.0  0.6582507054777772  0.24871999077996684  0.2048929663608505  1.0000
  Al  Al173     1.0  0.5720255331619589  0.21190756450304057  0.7354740061161931  1.0000
  P   P173      1.0  0.6654263576418323  0.2533848159273424  0.7324159021406579  1.0000
  Al  Al174     1.0  0.5802978557350437  0.2141028450960236  0.2629969418960214  1.0000
  P   P174      1.0  0.6724645988399118  0.25825449132440437  0.2599388379204863  1.0000
  Al  Al175     1.0  0.5885034791068666  0.21653560540375696  0.7905198776758416  1.0000
  P   P175      1.0  0.6793595827755996  0.2633249719881774  0.7874617737003065  1.0000
  Al  Al176     1.0  0.5966355872981005  0.21920382466033236  0.3180428134556444  1.0000
  P   P176      1.0  0.6861055821487458  0.2685920461373236  0.31498470948010926  1.0000
  Al  Al177     1.0  0.6046874253946076  0.22210528651648903  0.8455657492354646  1.0000
  P   P177      1.0  0.6926969934128325  0.2740513386906465  0.8425076452599294  1.0000
  Al  Al178     1.0  0.6126523051583918  0.22523758088061832  0.37308868501528014  1.0000
  P   P178      1.0  0.699128341429545  0.27969831490124114  0.37003058103974495  1.0000
  Al  Al179     1.0  0.6205236105831656  0.2285981059206999  0.9006116207951005  1.0000
  P   P179      1.0  0.7053942840166815  0.2855282841232697  0.8975535168195652  1.0000
  Al  Al180     1.0  0.6282948033899195  0.23218407022550716  0.42813455657491584  1.0000
  P   P180      1.0  0.7114896163856226  0.2915364037082341  0.4250764525993807  1.0000
  Al  Al181     1.0  0.6359594284579239  0.23599249512328474  0.955657492354736  1.0000
  P   P181      1.0  0.7174092754646746  0.29771768302750873  0.952599388379201  1.0000
  Al  Al182     1.0  0.6435111191866597  0.2400202171559747  0.48318042813455164  1.0000
  P   P182      1.0  0.7231483441046966  0.304066987617793  0.48012232415901646  1.0000
  Al  Al183     1.0  0.6509436027842179  0.24426389070693516  0.010703363914354369  1.0000
  P   P183      1.0  0.7287020551635187  0.31057904344604054  0.007645259938819201  1.0000
  Al  Al184     1.0  0.6582507054777772  0.24871999077996684  0.5382262996941746  1.0000
  P   P184      1.0  0.7340657954657541  0.3172484412903192  0.5351681957186394  1.0000
  Al  Al185     1.0  0.6654263576418323  0.2533848159273424  0.06574923547400291  1.0000
  P   P185      1.0  0.7392351096347226  0.32406964123296833  0.06269113149846774  1.0000
  Al  Al186     1.0  0.6724645988399115  0.2582544913244042  0.5932721712538231  1.0000
  P   P186      1.0  0.7442057037932961  0.33103697726231596  0.590214067278288  1.0000
  Al  Al187     1.0  0.6793595827755996  0.2633249719881774  0.12079510703362586  1.0000
  P   P187      1.0  0.7489734491305978  0.338144661979137  0.11773700305809069  1.0000
  Al  Al188     1.0  0.6861055821487458  0.2685920461373236  0.6483180428134461  1.0000
  P   P188      1.0  0.7535343853315868  0.3453867914039404  0.6452599388379109  1.0000
  Al  Al189     1.0  0.6926969934128323  0.27405133869064635  0.1758409785932744  1.0000
  P   P189      1.0  0.7578847238666836  0.3527573498810941  0.17278287461773925  1.0000
  Al  Al190     1.0  0.6991283414295448  0.279698314901241  0.7033639143730818  1.0000
  P   P190      1.0  0.7620208511387025  0.3602502150757146  0.7003058103975466  1.0000
  Al  Al191     1.0  0.7053942840166815  0.2855282841232697  0.2308868501528974  1.0000
  P   P191      1.0  0.7659393314844763  0.3678591630591666  0.22782874617736223  1.0000
  Al  Al192     1.0  0.7114896163856226  0.2915364037082341  0.7584097859327176  1.0000
  P   P192      1.0  0.7696369100286808  0.3755778734789538  0.7553516819571824  1.0000
  Al  Al193     1.0  0.7174092754646744  0.29771768302750856  0.2859327217125203  1.0000
  P   P193      1.0  0.7731105153874882  0.3833999348087028  0.2828746177369852  1.0000
  Al  Al194     1.0  0.7231483441046966  0.304066987617793  0.8134556574923406  1.0000
  P   P194      1.0  0.7763572622198044  0.39131884967388103  0.8103975535168053  1.0000
  Al  Al195     1.0  0.7287020551635187  0.31057904344604054  0.34097859327216884  1.0000
  P   P195      1.0  0.7793744536239693  0.39932804024882224  0.3379204892966337  1.0000
  Al  Al196     1.0  0.734065795465754  0.317248441290319  0.8685015290519891  1.0000
  P   P196      1.0  0.782159583377932  0.4074208537205811  0.8654434250764539  1.0000
  Al  Al197     1.0  0.7392351096347224  0.32406964123296816  0.3960244648317918  1.0000
  P   P197      1.0  0.7847103380210363  0.41559056781507525  0.3929663608562567  1.0000
  Al  Al198     1.0  0.7442057037932961  0.33103697726231596  0.9235474006116121  1.0000
  P   P198      1.0  0.7870245987756916  0.42383039638092274  0.9204892966360767  1.0000
  Al  Al199     1.0  0.7489734491305978  0.338144661979137  0.4510703363914276  1.0000
  P   P199      1.0  0.7891004433073299  0.43213349502634196  0.44801223241589244  1.0000
  Al  Al200     1.0  0.7535343853315866  0.34538679140394013  0.9785932721712349  1.0000
  P   P200      1.0  0.7909361473211866  0.440492966804427  0.9755351681956999  1.0000
  Al  Al201     1.0  0.7578847238666836  0.3527573498810941  0.5061162079510633  1.0000
  P   P201      1.0  0.7925301859945832  0.44890186794207926  0.5030581039755281  1.0000
  Al  Al202     1.0  0.7620208511387025  0.3602502150757146  0.03363914373087886  1.0000
  P   P202      1.0  0.7938812352435164  0.4573532136078329  0.030581039755343695  1.0000
  Al  Al203     1.0  0.7659393314844763  0.36785916305916627  0.5611620795106991  1.0000
  P   P203      1.0  0.7949881728225047  0.46583998371378676  0.5581039755351639  1.0000
  Al  Al204     1.0  0.7696369100286808  0.37557787347895366  0.08868501529050182  1.0000
  P   P204      1.0  0.7958500792567786  0.4743551287468236  0.08562691131496665  1.0000
  Al  Al205     1.0  0.7731105153874882  0.3833999348087028  0.616207951070322  1.0000
  P   P205      1.0  0.7964662386060409  0.4828915756242669  0.6131498470947868  1.0000
  Al  Al206     1.0  0.7763572622198044  0.39131884967388103  0.14373088685015037  1.0000
  P   P206      1.0  0.7968361390591595  0.49144223356911987  0.14067278287461518  1.0000
  Al  Al207     1.0  0.7793744536239693  0.399328040248822  0.6712538226299578  1.0000
  P   P207      1.0  0.7969594733593023  0.49999999999999994  0.6681957186544226  1.0000
  Al  Al208     1.0  0.782159583377932  0.4074208537205811  0.19877675840977332  1.0000
  P   P208      1.0  0.7968361390591595  0.5085577664308802  0.19571865443423817  1.0000
  Al  Al209     1.0  0.7847103380210363  0.41559056781507525  0.7262996941895936  1.0000
  P   P209      1.0  0.7964662386060409  0.5171084243757333  0.7232415902140583  1.0000
  Al  Al210     1.0  0.7870245987756916  0.42383039638092246  0.25382262996942184  1.0000
  P   P210      1.0  0.7958500792567786  0.5256448712531763  0.2507645259938867  1.0000
  Al  Al211     1.0  0.7891004433073298  0.4321334950263417  0.7813455657492293  1.0000
  P   P211      1.0  0.7949881728225047  0.5341600162862131  0.7782874617736941  1.0000
  Al  Al212     1.0  0.7909361473211866  0.440492966804427  0.30886850152904477  1.0000
  P   P212      1.0  0.7938812352435164  0.5426467863921673  0.30581039755350964  1.0000
  Al  Al213     1.0  0.7925301859945832  0.44890186794207926  0.836391437308865  1.0000
  P   P213      1.0  0.7925301859945832  0.5510981320579209  0.8333333333333298  1.0000
  Al  Al214     1.0  0.7938812352435164  0.45735321360783265  0.3639143730886678  1.0000
  P   P214      1.0  0.7909361473211866  0.5595070331955729  0.3608562691131326  1.0000
  Al  Al215     1.0  0.7949881728225047  0.46583998371378676  0.8914373088684879  1.0000
  P   P215      1.0  0.7891004433073299  0.5678665049736582  0.8883792048929527  1.0000
  Al  Al216     1.0  0.7958500792567786  0.4743551287468236  0.4189602446483163  1.0000
  P   P216      1.0  0.7870245987756916  0.5761696036190774  0.4159021406727812  1.0000
  Al  Al217     1.0  0.7964662386060409  0.48289157562426666  0.9464831804281366  1.0000
  P   P217      1.0  0.7847103380210363  0.5844094321849247  0.9434250764526012  1.0000
  Al  Al218     1.0  0.7968361390591595  0.4914422335691196  0.47400611620793925  1.0000
  P   P218      1.0  0.782159583377932  0.5925791462794188  0.47094801223240407  1.0000
