data_image0
_chemical_formula_structural       AlPAlPAlPAlPAlPAlPAlPAlPAlPAlPAlPAlPAlPAlPAlPAlPAlPAlPAlPAlPAlPAlPAlPAlPAlPAlP
_chemical_formula_sum              "Al26 P26"
_cell_length_a       22.0
_cell_length_b       22.0
_cell_length_c       24.553804185909765
_cell_angle_alpha    90.0
_cell_angle_beta     90.0
_cell_angle_gamma    90.0

_space_group_name_H-M_alt    "P 1"
_space_group_IT_number       1

loop_
  _space_group_symop_operation_xyz
  'x, y, z'

loop_
  _atom_site_type_symbol
  _atom_site_label
  _atom_site_symmetry_multiplicity
  _atom_site_fract_x
  _atom_site_fract_y
  _atom_site_fract_z
  _atom_site_occupancy
  Al  Al1       1.0  0.6025547101531864  0.5  0.012820512820512808  1.0000
  P   P1        1.0  0.558257715449257  0.5844008718274728  0.9871794871794872  1.0000
  Al  Al2       1.0  0.5995746566617368  0.5245429485861277  0.5897435897435898  1.0000
  P   P2        1.0  0.5363664014095506  0.5958903197571241  0.5641025641025641  1.0000
  Al  Al3       1.0  0.5908076860642574  0.5476595502104181  0.16666666666666663  1.0000
  P   P3        1.0  0.512361604306412  0.601806970849622  0.14102564102564102  1.0000
  Al  Al4       1.0  0.576763302825232  0.5680063520118953  0.7435897435897434  1.0000
  P   P4        1.0  0.48763839569358813  0.601806970849622  0.7179487179487178  1.0000
  Al  Al5       1.0  0.558257715449257  0.5844008718274728  0.32051282051282054  1.0000
  P   P5        1.0  0.4636335985904494  0.5958903197571241  0.2948717948717949  1.0000
  Al  Al6       1.0  0.5363664014095506  0.5958903197571241  0.8974358974358976  1.0000
  P   P6        1.0  0.4417422845507431  0.5844008718274728  0.8717948717948719  1.0000
  Al  Al7       1.0  0.512361604306412  0.601806970849622  0.47435897435897423  1.0000
  P   P7        1.0  0.42323669717476803  0.5680063520118953  0.4487179487179486  1.0000
  Al  Al8       1.0  0.48763839569358813  0.601806970849622  0.051282051282051155  1.0000
  P   P8        1.0  0.4091923139357427  0.5476595502104181  0.02564102564102553  1.0000
  Al  Al9       1.0  0.4636335985904494  0.5958903197571241  0.6282051282051282  1.0000
  P   P9        1.0  0.40042534333826324  0.5245429485861277  0.6025641025641026  1.0000
  Al  Al10      1.0  0.4417422845507431  0.5844008718274728  0.20512820512820518  1.0000
  P   P10       1.0  0.3974452898468136  0.5  0.17948717948717952  1.0000
  Al  Al11      1.0  0.42323669717476803  0.5680063520118953  0.7820512820512823  1.0000
  P   P11       1.0  0.40042534333826324  0.4754570514138723  0.7564102564102566  1.0000
  Al  Al12      1.0  0.4091923139357427  0.5476595502104181  0.35897435897435975  1.0000
  P   P12       1.0  0.4091923139357427  0.45234044978958193  0.33333333333333415  1.0000
  Al  Al13      1.0  0.40042534333826324  0.5245429485861277  0.9358974358974357  1.0000
  P   P13       1.0  0.42323669717476803  0.43199364798810475  0.91025641025641  1.0000
  Al  Al14      1.0  0.3974452898468136  0.5  0.512820512820512  1.0000
  P   P14       1.0  0.4417422845507431  0.41559912817252725  0.4871794871794864  1.0000
  Al  Al15      1.0  0.40042534333826324  0.4754570514138723  0.08974358974358951  1.0000
  P   P15       1.0  0.4636335985904494  0.4041096802428759  0.06410256410256389  1.0000
  Al  Al16      1.0  0.4091923139357427  0.45234044978958193  0.6666666666666665  1.0000
  P   P16       1.0  0.48763839569358813  0.3981930291503781  0.641025641025641  1.0000
  Al  Al17      1.0  0.42323669717476803  0.43199364798810475  0.2435897435897441  1.0000
  P   P17       1.0  0.5123616043064119  0.3981930291503781  0.21794871794871845  1.0000
  Al  Al18      1.0  0.4417422845507431  0.41559912817252725  0.8205128205128212  1.0000
  P   P18       1.0  0.5363664014095506  0.4041096802428759  0.7948717948717955  1.0000
  Al  Al19      1.0  0.4636335985904494  0.4041096802428759  0.3974358974358975  1.0000
  P   P19       1.0  0.558257715449257  0.41559912817252725  0.3717948717948719  1.0000
  Al  Al20      1.0  0.487638395693588  0.3981930291503781  0.9743589743589733  1.0000
  P   P20       1.0  0.576763302825232  0.4319936479881047  0.9487179487179478  1.0000
  Al  Al21      1.0  0.5123616043064119  0.3981930291503781  0.551282051282051  1.0000
  P   P21       1.0  0.5908076860642574  0.45234044978958193  0.5256410256410253  1.0000
  Al  Al22      1.0  0.5363664014095506  0.4041096802428759  0.12820512820512844  1.0000
  P   P22       1.0  0.5995746566617368  0.4754570514138723  0.10256410256410282  1.0000
  Al  Al23      1.0  0.558257715449257  0.41559912817252725  0.7051282051282067  1.0000
  P   P23       1.0  0.6025547101531864  0.5  0.6794871794871811  1.0000
  Al  Al24      1.0  0.576763302825232  0.4319936479881047  0.2820512820512819  1.0000
  P   P24       1.0  0.5995746566617368  0.5245429485861277  0.2564102564102562  1.0000
  Al  Al25      1.0  0.5908076860642574  0.45234044978958193  0.8589743589743578  1.0000
  P   P25       1.0  0.5908076860642574  0.547659550210418  0.8333333333333321  1.0000
  Al  Al26      1.0  0.5995746566617368  0.4754570514138722  0.4358974358974353  1.0000
  P   P26       1.0  0.576763302825232  0.5680063520118952  0.4102564102564097  1.0000
