data_image0
_chemical_formula_structural       AlPAlPAlPAlPAlPAlPAlPAlPAlPAlPAlPAlPAlPAlPAlPAlPAlPAlPAlPAlPAlPAlPAlPAlPAlPAlPAlPAlPAlPAlPAlPAlPAlPAlPAlPAlPAlPAlPAlPAlPAlPAlPAlPAlPAlPAlPAlPAlPAlPAlPAlPAlPAlPAlPAlPAlPAlPAlPAlPAlPAlPAlPAlPAlPAlPAlPAlPAlPAlPAlPAlPAlPAlPAlPAlPAlP
_chemical_formula_sum              "Al76 P76"
_cell_length_a       22.0
_cell_length_b       22.0
_cell_length_c       29.68410180551199
_cell_angle_alpha    90.0
_cell_angle_beta     90.0
_cell_angle_gamma    90.0

_space_group_name_H-M_alt    "P 1"
_space_group_IT_number       1

loop_
  _space_group_symop_operation_xyz
  'x, y, z'

loop_
  _atom_site_type_symbol
  _atom_site_label
  _atom_site_symmetry_multiplicity
  _atom_site_fract_x
  _atom_site_fract_y
  _atom_site_fract_z
  _atom_site_occupancy
  Al  Al1       1.0  0.7479651978791053  0.5  0.0043859649122812115  1.0000
  P   P1        1.0  0.7270799141564278  0.5996064854612048  0.9956140350877198  1.0000
  Al  Al2       1.0  0.7471182710116466  0.5204768037407739  0.13596491228070223  1.0000
  P   P2        1.0  0.7180788827473961  0.6180183894944823  0.12719298245614086  1.0000
  Al  Al3       1.0  0.7445832757785482  0.5408137301487924  0.2675438596491233  1.0000
  P   P3        1.0  0.7075881514401217  0.6356241082584397  0.2587719298245619  1.0000
  Al  Al4       1.0  0.7403775287677035  0.5608718573953169  0.39912280701754427  1.0000
  P   P4        1.0  0.6956793825668947  0.6523033768419555  0.3903508771929829  1.0000
  Al  Al5       1.0  0.7345297594957675  0.5805141681325797  0.5307017543859653  1.0000
  P   P5        1.0  0.6824339250944522  0.6679422589280484  0.521929824561404  1.0000
  Al  Al6       1.0  0.7270799141564278  0.5996064854612048  0.6622807017543865  1.0000
  P   P6        1.0  0.6679422589280484  0.6824339250944522  0.6535087719298251  1.0000
  Al  Al7       1.0  0.7180788827473961  0.6180183894944822  0.7938596491228074  1.0000
  P   P7        1.0  0.6523033768419556  0.6956793825668947  0.7850877192982461  1.0000
  Al  Al8       1.0  0.7075881514401217  0.6356241082584397  0.9254385964912285  1.0000
  P   P8        1.0  0.6356241082584397  0.7075881514401217  0.9166666666666672  1.0000
  Al  Al9       1.0  0.6956793825668947  0.6523033768419555  0.05701754385964947  1.0000
  P   P9        1.0  0.6180183894944823  0.7180788827473961  0.04824561403508807  1.0000
  Al  Al10      1.0  0.6824339250944522  0.6679422589280484  0.1885964912280706  1.0000
  P   P10       1.0  0.5996064854612048  0.7270799141564278  0.17982456140350916  1.0000
  Al  Al11      1.0  0.6679422589280484  0.6824339250944522  0.32017543859649156  1.0000
  P   P11       1.0  0.5805141681325798  0.7345297594957675  0.3114035087719302  1.0000
  Al  Al12      1.0  0.6523033768419555  0.6956793825668947  0.4517543859649125  1.0000
  P   P12       1.0  0.5608718573953169  0.7403775287677035  0.44298245614035114  1.0000
  Al  Al13      1.0  0.6356241082584397  0.7075881514401217  0.5833333333333335  1.0000
  P   P13       1.0  0.5408137301487925  0.7445832757785482  0.5745614035087722  1.0000
  Al  Al14      1.0  0.6180183894944823  0.7180788827473961  0.7149122807017545  1.0000
  P   P14       1.0  0.5204768037407739  0.7471182710116466  0.7061403508771932  1.0000
  Al  Al15      1.0  0.5996064854612048  0.7270799141564278  0.8464912280701758  1.0000
  P   P15       1.0  0.5  0.7479651978791053  0.8377192982456144  1.0000
  Al  Al16      1.0  0.5805141681325798  0.7345297594957675  0.9780701754385968  1.0000
  P   P16       1.0  0.4795231962592261  0.7471182710116466  0.9692982456140353  1.0000
  Al  Al17      1.0  0.5608718573953169  0.7403775287677035  0.10964912280701772  1.0000
  P   P17       1.0  0.4591862698512076  0.7445832757785482  0.10087719298245632  1.0000
  Al  Al18      1.0  0.5408137301487925  0.7445832757785482  0.2412280701754387  1.0000
  P   P18       1.0  0.4391281426046832  0.7403775287677035  0.2324561403508773  1.0000
  Al  Al19      1.0  0.5204768037407739  0.7471182710116466  0.37280701754386  1.0000
  P   P19       1.0  0.4194858318674203  0.7345297594957675  0.36403508771929854  1.0000
  Al  Al20      1.0  0.5  0.7479651978791053  0.5043859649122807  1.0000
  P   P20       1.0  0.40039351453879524  0.7270799141564278  0.4956140350877193  1.0000
  Al  Al21      1.0  0.4795231962592261  0.7471182710116466  0.635964912280702  1.0000
  P   P21       1.0  0.38198161050551777  0.7180788827473961  0.6271929824561406  1.0000
  Al  Al22      1.0  0.4591862698512076  0.7445832757785482  0.7675438596491228  1.0000
  P   P22       1.0  0.3643758917415603  0.7075881514401217  0.7587719298245614  1.0000
  Al  Al23      1.0  0.4391281426046832  0.7403775287677035  0.8991228070175439  1.0000
  P   P23       1.0  0.3476966231580445  0.6956793825668947  0.8903508771929826  1.0000
  Al  Al24      1.0  0.4194858318674203  0.7345297594957675  0.03070175438596498  1.0000
  P   P24       1.0  0.33205774107195174  0.6824339250944523  0.02192982456140358  1.0000
  Al  Al25      1.0  0.40039351453879524  0.7270799141564279  0.16228070175438575  1.0000
  P   P25       1.0  0.31756607490554783  0.6679422589280485  0.15350877192982434  1.0000
  Al  Al26      1.0  0.38198161050551777  0.7180788827473961  0.29385964912280693  1.0000
  P   P26       1.0  0.30432061743310534  0.6523033768419556  0.28508771929824556  1.0000
  Al  Al27      1.0  0.3643758917415603  0.7075881514401217  0.4254385964912277  1.0000
  P   P27       1.0  0.29241184855987845  0.6356241082584398  0.41666666666666635  1.0000
  Al  Al28      1.0  0.3476966231580445  0.6956793825668947  0.557017543859649  1.0000
  P   P28       1.0  0.281921117252604  0.6180183894944823  0.5482456140350876  1.0000
  Al  Al29      1.0  0.33205774107195174  0.6824339250944523  0.6885964912280701  1.0000
  P   P29       1.0  0.27292008584357225  0.5996064854612049  0.6798245614035088  1.0000
  Al  Al30      1.0  0.3175660749055477  0.6679422589280484  0.8201754385964909  1.0000
  P   P30       1.0  0.26547024050423257  0.5805141681325798  0.8114035087719296  1.0000
  Al  Al31      1.0  0.30432061743310534  0.6523033768419556  0.9517543859649122  1.0000
  P   P31       1.0  0.25962247123229665  0.560871857395317  0.9429824561403508  1.0000
  Al  Al32      1.0  0.29241184855987845  0.6356241082584397  0.083333333333333  1.0000
  P   P32       1.0  0.2554167242214518  0.5408137301487925  0.07456140350877159  1.0000
  Al  Al33      1.0  0.281921117252604  0.6180183894944823  0.21491228070175422  1.0000
  P   P33       1.0  0.2528817289883533  0.520476803740774  0.20614035087719282  1.0000
  Al  Al34      1.0  0.27292008584357225  0.5996064854612049  0.34649122807017546  1.0000
  P   P34       1.0  0.25203480212089474  0.5000000000000002  0.33771929824561403  1.0000
  Al  Al35      1.0  0.26547024050423257  0.5805141681325798  0.4780701754385962  1.0000
  P   P35       1.0  0.2528817289883533  0.47952319625922624  0.4692982456140348  1.0000
  Al  Al36      1.0  0.25962247123229665  0.560871857395317  0.609649122807017  1.0000
  P   P36       1.0  0.25541672422145173  0.4591862698512077  0.6008771929824556  1.0000
  Al  Al37      1.0  0.2554167242214518  0.5408137301487925  0.7412280701754387  1.0000
  P   P37       1.0  0.25962247123229665  0.43912814260468325  0.7324561403508774  1.0000
  Al  Al38      1.0  0.2528817289883533  0.520476803740774  0.8728070175438594  1.0000
  P   P38       1.0  0.26547024050423257  0.41948583186742033  0.864035087719298  1.0000
  Al  Al39      1.0  0.25203480212089474  0.5  0.004385964912280134  1.0000
  P   P39       1.0  0.27292008584357214  0.40039351453879524  0.9956140350877188  1.0000
  Al  Al40      1.0  0.2528817289883533  0.47952319625922624  0.13596491228070198  1.0000
  P   P40       1.0  0.2819211172526039  0.38198161050551793  0.12719298245614055  1.0000
  Al  Al41      1.0  0.25541672422145173  0.4591862698512076  0.26754385964912275  1.0000
  P   P41       1.0  0.2924118485598784  0.3643758917415603  0.2587719298245613  1.0000
  Al  Al42      1.0  0.25962247123229665  0.43912814260468325  0.39912280701754344  1.0000
  P   P42       1.0  0.30432061743310523  0.3476966231580446  0.39035087719298206  1.0000
  Al  Al43      1.0  0.26547024050423257  0.4194858318674203  0.5307017543859642  1.0000
  P   P43       1.0  0.3175660749055477  0.33205774107195174  0.5219298245614028  1.0000
  Al  Al44      1.0  0.27292008584357214  0.40039351453879524  0.662280701754386  1.0000
  P   P44       1.0  0.3320577410719516  0.31756607490554783  0.6535087719298246  1.0000
  Al  Al45      1.0  0.28192111725260394  0.3819816105055178  0.7938596491228066  1.0000
  P   P45       1.0  0.34769662315804445  0.30432061743310534  0.7850877192982453  1.0000
  Al  Al46      1.0  0.2924118485598784  0.3643758917415603  0.9254385964912274  1.0000
  P   P46       1.0  0.36437589174156026  0.29241184855987845  0.9166666666666661  1.0000
  Al  Al47      1.0  0.30432061743310534  0.3476966231580445  0.05701754385964875  1.0000
  P   P47       1.0  0.3819816105055178  0.28192111725260394  0.04824561403508735  1.0000
  Al  Al48      1.0  0.3175660749055477  0.33205774107195174  0.1885964912280695  1.0000
  P   P48       1.0  0.40039351453879507  0.27292008584357225  0.1798245614035081  1.0000
  Al  Al49      1.0  0.3320577410719516  0.31756607490554783  0.3201754385964903  1.0000
  P   P49       1.0  0.41948583186742017  0.26547024050423257  0.31140350877192885  1.0000
  Al  Al50      1.0  0.34769662315804445  0.30432061743310534  0.45175438596491196  1.0000
  P   P50       1.0  0.4391281426046832  0.25962247123229665  0.44298245614035053  1.0000
  Al  Al51      1.0  0.36437589174156026  0.29241184855987845  0.5833333333333327  1.0000
  P   P51       1.0  0.4591862698512076  0.25541672422145173  0.5745614035087714  1.0000
  Al  Al52      1.0  0.38198161050551765  0.28192111725260405  0.7149122807017535  1.0000
  P   P52       1.0  0.47952319625922607  0.2528817289883533  0.7061403508771921  1.0000
  Al  Al53      1.0  0.40039351453879507  0.27292008584357225  0.8464912280701743  1.0000
  P   P53       1.0  0.49999999999999994  0.25203480212089474  0.8377192982456129  1.0000
  Al  Al54      1.0  0.41948583186742017  0.26547024050423257  0.9780701754385959  1.0000
  P   P54       1.0  0.5204768037407739  0.2528817289883533  0.9692982456140345  1.0000
  Al  Al55      1.0  0.4391281426046832  0.25962247123229665  0.10964912280701725  1.0000
  P   P55       1.0  0.5408137301487925  0.2554167242214518  0.10087719298245584  1.0000
  Al  Al56      1.0  0.4591862698512075  0.2554167242214518  0.24122807017543801  1.0000
  P   P56       1.0  0.5608718573953168  0.25962247123229665  0.23245614035087658  1.0000
  Al  Al57      1.0  0.47952319625922607  0.2528817289883533  0.3728070175438597  1.0000
  P   P57       1.0  0.5805141681325797  0.26547024050423257  0.3640350877192983  1.0000
  Al  Al58      1.0  0.49999999999999994  0.25203480212089474  0.5043859649122805  1.0000
  P   P58       1.0  0.5996064854612048  0.2729200858435722  0.49561403508771906  1.0000
  Al  Al59      1.0  0.5204768037407739  0.2528817289883533  0.6359649122807012  1.0000
  P   P59       1.0  0.6180183894944824  0.281921117252604  0.6271929824561399  1.0000
  Al  Al60      1.0  0.5408137301487923  0.25541672422145173  0.767543859649123  1.0000
  P   P60       1.0  0.6356241082584397  0.2924118485598784  0.7587719298245617  1.0000
  Al  Al61      1.0  0.5608718573953168  0.25962247123229665  0.8991228070175437  1.0000
  P   P61       1.0  0.6523033768419555  0.30432061743310534  0.8903508771929823  1.0000
  Al  Al62      1.0  0.5805141681325797  0.26547024050423257  0.03070175438596403  1.0000
  P   P62       1.0  0.6679422589280484  0.3175660749055477  0.021929824561402633  1.0000
  Al  Al63      1.0  0.5996064854612048  0.2729200858435722  0.16228070175438478  1.0000
  P   P63       1.0  0.6824339250944523  0.33205774107195174  0.15350877192982337  1.0000
  Al  Al64      1.0  0.6180183894944821  0.2819211172526039  0.2938596491228065  1.0000
  P   P64       1.0  0.6956793825668947  0.34769662315804445  0.28508771929824506  1.0000
  Al  Al65      1.0  0.6356241082584397  0.2924118485598784  0.42543859649122723  1.0000
  P   P65       1.0  0.7075881514401217  0.36437589174156026  0.41666666666666585  1.0000
  Al  Al66      1.0  0.6523033768419555  0.30432061743310534  0.5570175438596481  1.0000
  P   P66       1.0  0.7180788827473961  0.3819816105055178  0.5482456140350866  1.0000
  Al  Al67      1.0  0.6679422589280481  0.3175660749055476  0.6885964912280697  1.0000
  P   P67       1.0  0.7270799141564278  0.40039351453879507  0.6798245614035083  1.0000
  Al  Al68      1.0  0.6824339250944522  0.3320577410719516  0.8201754385964904  1.0000
  P   P68       1.0  0.7345297594957675  0.41948583186742017  0.8114035087719291  1.0000
  Al  Al69      1.0  0.6956793825668947  0.34769662315804445  0.9517543859649112  1.0000
  P   P69       1.0  0.7403775287677035  0.4391281426046832  0.9429824561403499  1.0000
  Al  Al70      1.0  0.7075881514401217  0.36437589174156026  0.08333333333333252  1.0000
  P   P70       1.0  0.7445832757785482  0.4591862698512076  0.0745614035087711  1.0000
  Al  Al71      1.0  0.718078882747396  0.38198161050551765  0.21491228070175328  1.0000
  P   P71       1.0  0.7471182710116466  0.47952319625922596  0.20614035087719187  1.0000
  Al  Al72      1.0  0.7270799141564278  0.40039351453879507  0.3464912280701759  1.0000
  P   P72       1.0  0.7479651978791053  0.49999999999999994  0.33771929824561453  1.0000
  Al  Al73      1.0  0.7345297594957675  0.41948583186742017  0.4780701754385967  1.0000
  P   P73       1.0  0.7471182710116466  0.5204768037407739  0.4692982456140353  1.0000
  Al  Al74      1.0  0.7403775287677035  0.4391281426046832  0.6096491228070174  1.0000
  P   P74       1.0  0.7445832757785482  0.5408137301487925  0.6008771929824561  1.0000
  Al  Al75      1.0  0.7445832757785482  0.45918626985120736  0.7412280701754382  1.0000
  P   P75       1.0  0.7403775287677035  0.5608718573953168  0.7324561403508769  1.0000
  Al  Al76      1.0  0.7471182710116466  0.47952319625922596  0.872807017543859  1.0000
  P   P76       1.0  0.7345297594957675  0.5805141681325797  0.8640350877192977  1.0000
