data_image0
_chemical_formula_structural       AlPAlPAlPAlPAlPAlPAlPAlPAlPAlPAlPAlPAlPAlPAlPAlPAlPAlPAlPAlPAlPAlPAlPAlPAlPAlPAlPAlP
_chemical_formula_sum              "Al28 P28"
_cell_length_a       22.0
_cell_length_b       22.0
_cell_length_c       18.01756642834986
_cell_angle_alpha    90.0
_cell_angle_beta     90.0
_cell_angle_gamma    90.0

_space_group_name_H-M_alt    "P 1"
_space_group_IT_number       1

loop_
  _space_group_symop_operation_xyz
  'x, y, z'

loop_
  _atom_site_type_symbol
  _atom_site_label
  _atom_site_symmetry_multiplicity
  _atom_site_fract_x
  _atom_site_fract_y
  _atom_site_fract_z
  _atom_site_occupancy
  Al  Al1       1.0  0.6505091666231954  0.5  0.011904761904761826  1.0000
  P   P1        1.0  0.6176728048660405  0.5938409304758192  0.988095238095238  1.0000
  Al  Al2       1.0  0.6467355875801781  0.5334914403259801  0.22619047619047616  1.0000
  P   P2        1.0  0.5938409304758192  0.6176728048660405  0.20238095238095233  1.0000
  Al  Al3       1.0  0.6356040734614369  0.5653034799859397  0.44047619047619047  1.0000
  P   P3        1.0  0.5653034799859397  0.6356040734614369  0.41666666666666663  1.0000
  Al  Al4       1.0  0.6176728048660405  0.5938409304758192  0.6547619047619048  1.0000
  P   P4        1.0  0.5334914403259801  0.6467355875801781  0.6309523809523809  1.0000
  Al  Al5       1.0  0.5938409304758192  0.6176728048660405  0.8690476190476191  1.0000
  P   P5        1.0  0.5  0.6505091666231954  0.8452380952380952  1.0000
  Al  Al6       1.0  0.5653034799859397  0.6356040734614369  0.0833333333333333  1.0000
  P   P6        1.0  0.46650855967402  0.6467355875801781  0.059523809523809486  1.0000
  Al  Al7       1.0  0.5334914403259801  0.6467355875801781  0.2976190476190475  1.0000
  P   P7        1.0  0.4346965200140604  0.6356040734614369  0.2738095238095237  1.0000
  Al  Al8       1.0  0.5  0.6505091666231954  0.511904761904762  1.0000
  P   P8        1.0  0.4061590695241808  0.6176728048660405  0.4880952380952381  1.0000
  Al  Al9       1.0  0.46650855967402  0.6467355875801781  0.7261904761904762  1.0000
  P   P9        1.0  0.3823271951339595  0.5938409304758192  0.7023809523809523  1.0000
  Al  Al10      1.0  0.4346965200140604  0.6356040734614369  0.9404761904761905  1.0000
  P   P10       1.0  0.3643959265385632  0.5653034799859397  0.9166666666666666  1.0000
  Al  Al11      1.0  0.4061590695241808  0.6176728048660405  0.15476190476190477  1.0000
  P   P11       1.0  0.353264412419822  0.5334914403259801  0.13095238095238096  1.0000
  Al  Al12      1.0  0.3823271951339595  0.5938409304758192  0.369047619047619  1.0000
  P   P12       1.0  0.3494908333768047  0.5  0.3452380952380952  1.0000
  Al  Al13      1.0  0.3643959265385632  0.5653034799859397  0.5833333333333331  1.0000
  P   P13       1.0  0.353264412419822  0.4665085596740201  0.5595238095238093  1.0000
  Al  Al14      1.0  0.353264412419822  0.5334914403259801  0.7976190476190474  1.0000
  P   P14       1.0  0.3643959265385632  0.4346965200140604  0.7738095238095236  1.0000
  Al  Al15      1.0  0.3494908333768047  0.5  0.011904761904762213  1.0000
  P   P15       1.0  0.3823271951339595  0.4061590695241809  0.9880952380952382  1.0000
  Al  Al16      1.0  0.353264412419822  0.4665085596740201  0.22619047619047647  1.0000
  P   P16       1.0  0.4061590695241808  0.3823271951339595  0.20238095238095263  1.0000
  Al  Al17      1.0  0.3643959265385632  0.4346965200140604  0.44047619047619063  1.0000
  P   P17       1.0  0.4346965200140604  0.3643959265385632  0.41666666666666685  1.0000
  Al  Al18      1.0  0.3823271951339595  0.4061590695241809  0.6547619047619049  1.0000
  P   P18       1.0  0.46650855967402  0.353264412419822  0.630952380952381  1.0000
  Al  Al19      1.0  0.4061590695241808  0.3823271951339595  0.8690476190476195  1.0000
  P   P19       1.0  0.5  0.3494908333768047  0.8452380952380956  1.0000
  Al  Al20      1.0  0.4346965200140604  0.3643959265385632  0.0833333333333331  1.0000
  P   P20       1.0  0.53349144032598  0.353264412419822  0.0595238095238093  1.0000
  Al  Al21      1.0  0.46650855967402  0.353264412419822  0.2976190476190477  1.0000
  P   P21       1.0  0.5653034799859395  0.3643959265385632  0.2738095238095239  1.0000
  Al  Al22      1.0  0.5  0.3494908333768047  0.5119047619047615  1.0000
  P   P22       1.0  0.5938409304758191  0.3823271951339595  0.4880952380952377  1.0000
  Al  Al23      1.0  0.53349144032598  0.353264412419822  0.7261904761904762  1.0000
  P   P23       1.0  0.6176728048660405  0.4061590695241808  0.7023809523809523  1.0000
  Al  Al24      1.0  0.5653034799859395  0.3643959265385632  0.9404761904761907  1.0000
  P   P24       1.0  0.6356040734614369  0.4346965200140604  0.9166666666666669  1.0000
  Al  Al25      1.0  0.5938409304758191  0.3823271951339595  0.1547619047619044  1.0000
  P   P25       1.0  0.646735587580178  0.46650855967402  0.1309523809523806  1.0000
  Al  Al26      1.0  0.6176728048660405  0.4061590695241808  0.369047619047619  1.0000
  P   P26       1.0  0.6505091666231954  0.5  0.3452380952380952  1.0000
  Al  Al27      1.0  0.6356040734614369  0.4346965200140604  0.5833333333333328  1.0000
  P   P27       1.0  0.6467355875801781  0.53349144032598  0.559523809523809  1.0000
  Al  Al28      1.0  0.646735587580178  0.46650855967402  0.7976190476190474  1.0000
  P   P28       1.0  0.6356040734614369  0.5653034799859395  0.7738095238095236  1.0000
