data_image0
_chemical_formula_structural       AlPAlPAlPAlPAlPAlPAlPAlPAlPAlP
_chemical_formula_sum              "Al10 P10"
_cell_length_a       22.0
_cell_length_b       22.0
_cell_length_c       6.81
_cell_angle_alpha    90.0
_cell_angle_beta     90.0
_cell_angle_gamma    90.0

_space_group_name_H-M_alt    "P 1"
_space_group_IT_number       1

loop_
  _space_group_symop_operation_xyz
  'x, y, z'

loop_
  _atom_site_type_symbol
  _atom_site_label
  _atom_site_symmetry_multiplicity
  _atom_site_fract_x
  _atom_site_fract_y
  _atom_site_fract_z
  _atom_site_occupancy
  Al  Al1       1.0  0.642217794614485  0.5  0.08333333333333326  1.0000
  P   P1        1.0  0.6150566127456443  0.5835935222879542  0.9166666666666666  1.0000
  Al  Al2       1.0  0.6150566127456443  0.5835935222879542  0.5833333333333333  1.0000
  P   P2        1.0  0.5439477154384017  0.6352571603012318  0.4166666666666666  1.0000
  Al  Al3       1.0  0.5439477154384017  0.6352571603012318  0.08333333333333326  1.0000
  P   P3        1.0  0.4560522845615983  0.6352571603012318  0.9166666666666666  1.0000
  Al  Al4       1.0  0.4560522845615983  0.6352571603012318  0.5833333333333331  1.0000
  P   P4        1.0  0.3849433872543558  0.5835935222879542  0.4166666666666665  1.0000
  Al  Al5       1.0  0.3849433872543558  0.5835935222879542  0.08333333333333326  1.0000
  P   P5        1.0  0.35778220538551503  0.5  0.9166666666666666  1.0000
  Al  Al6       1.0  0.35778220538551503  0.5  0.5833333333333333  1.0000
  P   P6        1.0  0.3849433872543558  0.4164064777120458  0.4166666666666667  1.0000
  Al  Al7       1.0  0.3849433872543558  0.4164064777120458  0.08333333333333326  1.0000
  P   P7        1.0  0.45605228456159824  0.36474283969876825  0.9166666666666664  1.0000
  Al  Al8       1.0  0.45605228456159824  0.36474283969876825  0.5833333333333335  1.0000
  P   P8        1.0  0.5439477154384017  0.36474283969876825  0.41666666666666685  1.0000
  Al  Al9       1.0  0.5439477154384017  0.36474283969876825  0.08333333333333326  1.0000
  P   P9        1.0  0.6150566127456443  0.4164064777120458  0.9166666666666664  1.0000
  Al  Al10      1.0  0.6150566127456443  0.4164064777120458  0.5833333333333335  1.0000
  P   P10       1.0  0.642217794614485  0.5  0.41666666666666685  1.0000
