data_image0
_chemical_formula_structural       AlPAlPAlPAlPAlPAlPAlPAlPAlPAlPAlPAlPAlPAlPAlPAlPAlPAlP
_chemical_formula_sum              "Al18 P18"
_cell_length_a       22.0
_cell_length_b       22.0
_cell_length_c       6.81
_cell_angle_alpha    90.0
_cell_angle_beta     90.0
_cell_angle_gamma    90.0

_space_group_name_H-M_alt    "P 1"
_space_group_IT_number       1

loop_
  _space_group_symop_operation_xyz
  'x, y, z'

loop_
  _atom_site_type_symbol
  _atom_site_label
  _atom_site_symmetry_multiplicity
  _atom_site_fract_x
  _atom_site_fract_y
  _atom_site_fract_z
  _atom_site_occupancy
  Al  Al1       1.0  0.7559920303060731  0.5  0.08333333333333312  1.0000
  P   P1        1.0  0.7405538218586194  0.5875544308955121  0.9166666666666664  1.0000
  Al  Al2       1.0  0.7405538218586194  0.587554430895512  0.5833333333333331  1.0000
  P   P2        1.0  0.6961012722987123  0.6645485052592448  0.41666666666666646  1.0000
  Al  Al3       1.0  0.6961012722987123  0.6645485052592448  0.08333333333333312  1.0000
  P   P3        1.0  0.6279960151530365  0.7216956014114152  0.9166666666666664  1.0000
  Al  Al4       1.0  0.6279960151530365  0.7216956014114152  0.583333333333333  1.0000
  P   P4        1.0  0.5444525495599072  0.7521029361547569  0.4166666666666664  1.0000
  Al  Al5       1.0  0.5444525495599072  0.7521029361547569  0.08333333333333312  1.0000
  P   P5        1.0  0.4555474504400928  0.7521029361547569  0.9166666666666666  1.0000
  Al  Al6       1.0  0.4555474504400928  0.7521029361547569  0.5833333333333331  1.0000
  P   P6        1.0  0.3720039848469635  0.7216956014114151  0.4166666666666665  1.0000
  Al  Al7       1.0  0.37200398484696356  0.7216956014114152  0.08333333333333312  1.0000
  P   P7        1.0  0.3038987277012878  0.6645485052592449  0.9166666666666664  1.0000
  Al  Al8       1.0  0.3038987277012878  0.6645485052592449  0.5833333333333334  1.0000
  P   P8        1.0  0.2594461781413806  0.5875544308955121  0.41666666666666674  1.0000
  Al  Al9       1.0  0.2594461781413806  0.5875544308955121  0.08333333333333312  1.0000
  P   P9        1.0  0.24400796969392702  0.5  0.9166666666666664  1.0000
  Al  Al10      1.0  0.24400796969392702  0.5  0.5833333333333334  1.0000
  P   P10       1.0  0.2594461781413806  0.41244556910448804  0.41666666666666674  1.0000
  Al  Al11      1.0  0.2594461781413806  0.41244556910448804  0.08333333333333312  1.0000
  P   P11       1.0  0.3038987277012878  0.33545149474075525  0.9166666666666669  1.0000
  Al  Al12      1.0  0.3038987277012878  0.33545149474075525  0.5833333333333329  1.0000
  P   P12       1.0  0.3720039848469637  0.2783043985885848  0.4166666666666663  1.0000
  Al  Al13      1.0  0.3720039848469634  0.27830439858858497  0.08333333333333312  1.0000
  P   P13       1.0  0.4555474504400928  0.24789706384524318  0.9166666666666659  1.0000
  Al  Al14      1.0  0.4555474504400928  0.24789706384524318  0.5833333333333329  1.0000
  P   P14       1.0  0.5444525495599071  0.24789706384524315  0.4166666666666663  1.0000
  Al  Al15      1.0  0.5444525495599071  0.24789706384524315  0.08333333333333312  1.0000
  P   P15       1.0  0.6279960151530364  0.2783043985885848  0.9166666666666669  1.0000
  Al  Al16      1.0  0.6279960151530365  0.2783043985885849  0.5833333333333329  1.0000
  P   P16       1.0  0.6961012722987123  0.3354514947407553  0.4166666666666663  1.0000
  Al  Al17      1.0  0.6961012722987122  0.33545149474075514  0.08333333333333312  1.0000
  P   P17       1.0  0.7405538218586194  0.41244556910448804  0.9166666666666659  1.0000
  Al  Al18      1.0  0.7405538218586194  0.41244556910448776  0.5833333333333329  1.0000
  P   P18       1.0  0.7559920303060731  0.49999999999999994  0.4166666666666663  1.0000
