data_image0
_chemical_formula_structural       AlPAlPAlPAlPAlPAlPAlPAlPAlPAlPAlPAlPAlPAlP
_chemical_formula_sum              "Al14 P14"
_cell_length_a       22.0
_cell_length_b       22.0
_cell_length_c       6.81
_cell_angle_alpha    90.0
_cell_angle_beta     90.0
_cell_angle_gamma    90.0

_space_group_name_H-M_alt    "P 1"
_space_group_IT_number       1

loop_
  _space_group_symop_operation_xyz
  'x, y, z'

loop_
  _atom_site_type_symbol
  _atom_site_label
  _atom_site_symmetry_multiplicity
  _atom_site_fract_x
  _atom_site_fract_y
  _atom_site_fract_z
  _atom_site_occupancy
  Al  Al1       1.0  0.699104912460279  0.5  0.08333333333333312  1.0000
  P   P1        1.0  0.6793873275731479  0.58638838389494  0.9166666666666664  1.0000
  Al  Al2       1.0  0.6793873275731479  0.58638838389494  0.5833333333333331  1.0000
  P   P2        1.0  0.6241398824189599  0.6556664888754873  0.41666666666666646  1.0000
  Al  Al3       1.0  0.6241398824189599  0.6556664888754873  0.08333333333333312  1.0000
  P   P3        1.0  0.5443050110759515  0.6941129366100446  0.9166666666666664  1.0000
  Al  Al4       1.0  0.5443050110759515  0.6941129366100446  0.583333333333333  1.0000
  P   P4        1.0  0.4556949889240485  0.6941129366100446  0.4166666666666664  1.0000
  Al  Al5       1.0  0.4556949889240485  0.6941129366100446  0.08333333333333312  1.0000
  P   P5        1.0  0.37586011758104015  0.6556664888754873  0.9166666666666666  1.0000
  Al  Al6       1.0  0.37586011758104015  0.6556664888754873  0.5833333333333331  1.0000
  P   P6        1.0  0.32061267242685215  0.58638838389494  0.4166666666666665  1.0000
  Al  Al7       1.0  0.32061267242685215  0.58638838389494  0.08333333333333312  1.0000
  P   P7        1.0  0.300895087539721  0.5  0.9166666666666664  1.0000
  Al  Al8       1.0  0.300895087539721  0.5  0.5833333333333334  1.0000
  P   P8        1.0  0.32061267242685215  0.4136116161050601  0.41666666666666674  1.0000
  Al  Al9       1.0  0.32061267242685215  0.4136116161050601  0.08333333333333312  1.0000
  P   P9        1.0  0.3758601175810401  0.34433351112451277  0.9166666666666664  1.0000
  Al  Al10      1.0  0.3758601175810401  0.34433351112451277  0.5833333333333334  1.0000
  P   P10       1.0  0.45569498892404847  0.3058870633899554  0.41666666666666674  1.0000
  Al  Al11      1.0  0.45569498892404847  0.3058870633899554  0.08333333333333312  1.0000
  P   P11       1.0  0.5443050110759515  0.3058870633899554  0.9166666666666669  1.0000
  Al  Al12      1.0  0.5443050110759515  0.3058870633899554  0.5833333333333329  1.0000
  P   P12       1.0  0.6241398824189599  0.34433351112451277  0.4166666666666663  1.0000
  Al  Al13      1.0  0.6241398824189599  0.34433351112451277  0.08333333333333312  1.0000
  P   P13       1.0  0.6793873275731479  0.41361161610506  0.9166666666666659  1.0000
  Al  Al14      1.0  0.6793873275731479  0.41361161610506  0.5833333333333329  1.0000
  P   P14       1.0  0.699104912460279  0.49999999999999994  0.4166666666666663  1.0000
