data_image0
_chemical_formula_structural       AlPAlPAlPAlPAlPAlPAlPAlPAlPAlPAlPAlPAlPAlPAlPAlPAlPAlPAlPAlPAlPAlP
_chemical_formula_sum              "Al22 P22"
_cell_length_a       22.0
_cell_length_b       22.0
_cell_length_c       6.81
_cell_angle_alpha    90.0
_cell_angle_beta     90.0
_cell_angle_gamma    90.0

_space_group_name_H-M_alt    "P 1"
_space_group_IT_number       1

loop_
  _space_group_symop_operation_xyz
  'x, y, z'

loop_
  _atom_site_type_symbol
  _atom_site_label
  _atom_site_symmetry_multiplicity
  _atom_site_fract_x
  _atom_site_fract_y
  _atom_site_fract_z
  _atom_site_occupancy
  Al  Al1       1.0  0.812879148151867  0.5  0.08333333333333312  1.0000
  P   P1        1.0  0.8002053442422057  0.588148242391194  0.9166666666666664  1.0000
  Al  Al2       1.0  0.8002053442422057  0.588148242391194  0.5833333333333331  1.0000
  P   P2        1.0  0.7632106887319686  0.6691552384216364  0.41666666666666646  1.0000
  Al  Al3       1.0  0.7632106887319686  0.6691552384216364  0.08333333333333312  1.0000
  P   P3        1.0  0.7048922685949072  0.7364582830400963  0.9166666666666664  1.0000
  Al  Al4       1.0  0.7048922685949072  0.7364582830400963  0.583333333333333  1.0000
  P   P4        1.0  0.6299746953975269  0.7846048838382048  0.4166666666666664  1.0000
  Al  Al5       1.0  0.6299746953975269  0.7846048838382048  0.08333333333333312  1.0000
  P   P5        1.0  0.5445273453683162  0.8096944895581589  0.9166666666666666  1.0000
  Al  Al6       1.0  0.5445273453683162  0.8096944895581589  0.5833333333333331  1.0000
  P   P6        1.0  0.45547265463168385  0.8096944895581589  0.4166666666666665  1.0000
  Al  Al7       1.0  0.4554726546316839  0.8096944895581589  0.08333333333333312  1.0000
  P   P7        1.0  0.37002530460247307  0.7846048838382048  0.9166666666666664  1.0000
  Al  Al8       1.0  0.37002530460247307  0.7846048838382048  0.5833333333333334  1.0000
  P   P8        1.0  0.29510773140509283  0.7364582830400963  0.41666666666666674  1.0000
  Al  Al9       1.0  0.29510773140509283  0.7364582830400963  0.08333333333333312  1.0000
  P   P9        1.0  0.23678931126803132  0.6691552384216364  0.9166666666666664  1.0000
  Al  Al10      1.0  0.2367893112680314  0.6691552384216365  0.5833333333333334  1.0000
  P   P10       1.0  0.1997946557577943  0.588148242391194  0.41666666666666674  1.0000
  Al  Al11      1.0  0.1997946557577943  0.588148242391194  0.08333333333333312  1.0000
  P   P11       1.0  0.187120851848133  0.5  0.9166666666666669  1.0000
  Al  Al12      1.0  0.187120851848133  0.5  0.5833333333333329  1.0000
  P   P12       1.0  0.19979465575779426  0.41185175760880616  0.4166666666666663  1.0000
  Al  Al13      1.0  0.19979465575779426  0.41185175760880616  0.08333333333333312  1.0000
  P   P13       1.0  0.23678931126803132  0.33084476157836373  0.9166666666666659  1.0000
  Al  Al14      1.0  0.23678931126803135  0.3308447615783636  0.5833333333333329  1.0000
  P   P14       1.0  0.2951077314050929  0.2635417169599036  0.4166666666666663  1.0000
  Al  Al15      1.0  0.2951077314050928  0.26354171695990364  0.08333333333333312  1.0000
  P   P15       1.0  0.37002530460247307  0.21539511616179527  0.9166666666666669  1.0000
  Al  Al16      1.0  0.37002530460247307  0.21539511616179527  0.5833333333333329  1.0000
  P   P16       1.0  0.45547265463168385  0.19030551044184107  0.4166666666666663  1.0000
  Al  Al17      1.0  0.45547265463168385  0.19030551044184107  0.08333333333333312  1.0000
  P   P17       1.0  0.5445273453683162  0.19030551044184102  0.9166666666666659  1.0000
  Al  Al18      1.0  0.5445273453683162  0.19030551044184102  0.5833333333333329  1.0000
  P   P18       1.0  0.6299746953975268  0.2153951161617952  0.4166666666666663  1.0000
  Al  Al19      1.0  0.6299746953975268  0.2153951161617952  0.08333333333333312  1.0000
  P   P19       1.0  0.7048922685949071  0.26354171695990347  0.9166666666666669  1.0000
  Al  Al20      1.0  0.7048922685949073  0.26354171695990364  0.583333333333332  1.0000
  P   P20       1.0  0.7632106887319686  0.3308447615783637  0.41666666666666535  1.0000
  Al  Al21      1.0  0.7632106887319686  0.3308447615783637  0.08333333333333312  1.0000
  P   P21       1.0  0.8002053442422057  0.411851757608806  0.9166666666666669  1.0000
  Al  Al22      1.0  0.8002053442422057  0.411851757608806  0.583333333333332  1.0000
  P   P22       1.0  0.812879148151867  0.49999999999999994  0.41666666666666535  1.0000
