data_image0
_chemical_formula_structural       AlPAlPAlPAlPAlPAlP
_chemical_formula_sum              "Al6 P6"
_cell_length_a       20.0
_cell_length_b       20.0
_cell_length_c       3.897114317029974
_cell_angle_alpha    90.0
_cell_angle_beta     90.0
_cell_angle_gamma    90.0

_space_group_name_H-M_alt    "P 1"
_space_group_IT_number       1

loop_
  _space_group_symop_operation_xyz
  'x, y, z'

loop_
  _atom_site_type_symbol
  _atom_site_label
  _atom_site_symmetry_multiplicity
  _atom_site_fract_x
  _atom_site_fract_y
  _atom_site_fract_z
  _atom_site_occupancy
  Al  Al1       1.0  0.6611443798805441  0.5  3.4186003313485577e-16  1.0000
  P   P1        1.0  0.6234437567473444  0.6035816107578346  3.4186003313485577e-16  1.0000
  Al  Al2       1.0  0.580572189940272  0.6395551266536411  0.5000000000000002  1.0000
  P   P2        1.0  0.472017572092476  0.6586962346607043  0.5000000000000002  1.0000
  Al  Al3       1.0  0.41942781005972807  0.6395551266536412  1.1395334437828526e-16  1.0000
  P   P3        1.0  0.3485738153451316  0.5551146239028698  0.0  1.0000
  Al  Al4       1.0  0.33885562011945597  0.5  0.4999999999999999  1.0000
  P   P4        1.0  0.37655624325265563  0.3964183892421655  0.4999999999999999  1.0000
  Al  Al5       1.0  0.4194278100597279  0.36044487334635894  0.9999999999999999  1.0000
  P   P5        1.0  0.527982427907524  0.3413037653392958  0.9999999999999998  1.0000
  Al  Al6       1.0  0.5805721899402719  0.36044487334635883  0.49999999999999956  1.0000
  P   P6        1.0  0.6514261846548685  0.4448853760971302  0.49999999999999956  1.0000
