data_image0
_chemical_formula_structural       AlPAlPAlPAlPAlPAlPAlPAlPAlPAlPAlPAlPAlPAlPAlPAlPAlPAlPAlPAlPAlPAlPAlPAlPAlPAlPAlPAlPAlPAlPAlPAlPAlPAlPAlPAlPAlPAlPAlPAlPAlPAlPAlPAlPAlPAlPAlPAlPAlPAlPAlPAlPAlPAlPAlPAlPAlPAlPAlPAlPAlPAlPAlPAlPAlPAlPAlPAlPAlPAlPAlPAlPAlPAlPAlPAlPAlPAlPAlPAlPAlPAlPAlPAlPAlPAlPAlPAlPAlPAlPAlPAlPAlPAlPAlPAlPAlPAlP
_chemical_formula_sum              "Al98 P98"
_cell_length_a       20.0
_cell_length_b       20.0
_cell_length_c       47.669999999999995
_cell_angle_alpha    90.0
_cell_angle_beta     90.0
_cell_angle_gamma    90.0

_space_group_name_H-M_alt    "P 1"
_space_group_IT_number       1

loop_
  _space_group_symop_operation_xyz
  'x, y, z'

loop_
  _atom_site_type_symbol
  _atom_site_label
  _atom_site_symmetry_multiplicity
  _atom_site_fract_x
  _atom_site_fract_y
  _atom_site_fract_z
  _atom_site_occupancy
  Al  Al1       1.0  0.7190154037063069  0.5  0.003401360544217692  1.0000
  P   P1        1.0  0.6908322177404403  0.6074747027579132  0.9965986394557822  1.0000
  Al  Al2       1.0  0.7185654130700639  0.5140323650946277  0.54421768707483  1.0000
  P   P2        1.0  0.6835542046343402  0.6194805466245086  0.5374149659863946  1.0000
  Al  Al3       1.0  0.7172172902693821  0.5280070681911487  0.08503401360544227  1.0000
  P   P3        1.0  0.6755219279291441  0.6309954192965271  0.07823129251700688  1.0000
  Al  Al4       1.0  0.7149765750300205  0.5418666842369751  0.6258503401360546  1.0000
  P   P4        1.0  0.6667683939727518  0.6419720036922268  0.6190476190476192  1.0000
  Al  Al5       1.0  0.7118524749315299  0.5555542610968961  0.16666666666666682  1.0000
  P   P5        1.0  0.6573295729138171  0.6523651946718559  0.15986394557823147  1.0000
  Al  Al6       1.0  0.7078578275713323  0.5690135535816182  0.7074829931972788  1.0000
  P   P6        1.0  0.6472442508926919  0.6621322843843466  0.7006802721088435  1.0000
  Al  Al7       1.0  0.7030090478122799  0.5821892545713129  0.24829931972789138  1.0000
  P   P7        1.0  0.6365538706608559  0.6712331377630361  0.241496598639456  1.0000
  Al  Al8       1.0  0.6973260603304627  0.5950272222844339  0.7891156462585039  1.0000
  P   P8        1.0  0.625302361283761  0.6796303574492643  0.7823129251700685  1.0000
  Al  Al9       1.0  0.6908322177404403  0.6074747027579132  0.32993197278911596  1.0000
  P   P9        1.0  0.613535957626879  0.6872894374661427  0.3231292517006806  1.0000
  Al  Al10      1.0  0.6835542046343402  0.6194805466245086  0.870748299319728  1.0000
  P   P10       1.0  0.6013030103667215  0.6941789050110144  0.8639455782312925  1.0000
  Al  Al11      1.0  0.6755219279291442  0.6309954192965271  0.4115646258503399  1.0000
  P   P11       1.0  0.5886537873075397  0.7002704497839511  0.40476190476190455  1.0000
  Al  Al12      1.0  0.6667683939727518  0.6419720036922268  0.9523809523809532  1.0000
  P   P12       1.0  0.5756402668201334  0.7055390403208492  0.9455782312925177  1.0000
  Al  Al13      1.0  0.6573295729138171  0.6523651946718559  0.49319727891156506  1.0000
  P   P13       1.0  0.5623159242515768  0.7099630268530828  0.4863945578231297  1.0000
  Al  Al14      1.0  0.6472442508926919  0.6621322843843466  0.03401360544217765  1.0000
  P   P14       1.0  0.5487355121835468  0.713524230271049  0.027210884353742273  1.0000
  Al  Al15      1.0  0.6365538706608559  0.6712331377630361  0.5748299319727908  1.0000
  P   P15       1.0  0.5349548354422197  0.7162080168260279  0.5680272108843554  1.0000
  Al  Al16      1.0  0.625302361283761  0.6796303574492643  0.11564625850340221  1.0000
  P   P16       1.0  0.5210305217842722  0.7180033582633943  0.10884353741496684  1.0000
  Al  Al17      1.0  0.613535957626879  0.6872894374661427  0.6564625850340142  1.0000
  P   P17       1.0  0.5070197892012801  0.7189028771400828  0.6496598639455788  1.0000
  Al  Al18      1.0  0.6013030103667216  0.6941789050110143  0.1972789115646256  1.0000
  P   P18       1.0  0.49298021079872  0.7189028771400828  0.1904761904761902  1.0000
  Al  Al19      1.0  0.5886537873075397  0.7002704497839511  0.7380952380952376  1.0000
  P   P19       1.0  0.47896947821572794  0.7180033582633943  0.7312925170068021  1.0000
  Al  Al20      1.0  0.5756402668201334  0.7055390403208492  0.27891156462585137  1.0000
  P   P20       1.0  0.46504516455778033  0.7162080168260279  0.272108843537416  1.0000
  Al  Al21      1.0  0.5623159242515768  0.7099630268530828  0.8197278911564623  1.0000
  P   P21       1.0  0.4512644878164534  0.713524230271049  0.8129251700680267  1.0000
  Al  Al22      1.0  0.5487355121835468  0.713524230271049  0.3605442176870759  1.0000
  P   P22       1.0  0.43768407574842316  0.7099630268530828  0.3537414965986405  1.0000
  Al  Al23      1.0  0.5349548354422198  0.7162080168260279  0.901360544217689  1.0000
  P   P23       1.0  0.42435973317986675  0.7055390403208492  0.8945578231292537  1.0000
  Al  Al24      1.0  0.5210305217842722  0.7180033582633943  0.44217687074829926  1.0000
  P   P24       1.0  0.41134621269246036  0.7002704497839513  0.4353741496598639  1.0000
  Al  Al25      1.0  0.5070197892012801  0.7189028771400828  0.9829931972789123  1.0000
  P   P25       1.0  0.39869698963327854  0.6941789050110144  0.9761904761904772  1.0000
  Al  Al26      1.0  0.49298021079872  0.7189028771400828  0.5238095238095251  1.0000
  P   P26       1.0  0.3864640423731211  0.6872894374661427  0.5170068027210897  1.0000
  Al  Al27      1.0  0.47896947821572794  0.7180033582633943  0.06462585034013761  1.0000
  P   P27       1.0  0.37469763871623907  0.6796303574492644  0.05782312925170223  1.0000
  Al  Al28      1.0  0.46504516455778033  0.7162080168260279  0.6054421768707507  1.0000
  P   P28       1.0  0.3634461293391442  0.6712331377630361  0.5986394557823154  1.0000
  Al  Al29      1.0  0.4512644878164534  0.713524230271049  0.14625850340136334  1.0000
  P   P29       1.0  0.35275574910730817  0.6621322843843466  0.139455782312928  1.0000
  Al  Al30      1.0  0.4376840757484233  0.7099630268530828  0.6870748299319742  1.0000
  P   P30       1.0  0.342670427086183  0.6523651946718559  0.6802721088435387  1.0000
  Al  Al31      1.0  0.42435973317986675  0.7055390403208492  0.2278911564625867  1.0000
  P   P31       1.0  0.3332316060272483  0.6419720036922268  0.22108843537415132  1.0000
  Al  Al32      1.0  0.41134621269246047  0.7002704497839513  0.7687074829931974  1.0000
  P   P32       1.0  0.32447807207085594  0.6309954192965271  0.7619047619047622  1.0000
  Al  Al33      1.0  0.39869698963327854  0.6941789050110144  0.3095238095238101  1.0000
  P   P33       1.0  0.31644579536565987  0.6194805466245086  0.3027210884353747  1.0000
  Al  Al34      1.0  0.3864640423731211  0.6872894374661427  0.8503401360544232  1.0000
  P   P34       1.0  0.3091677822595597  0.607474702757913  0.843537414965988  1.0000
  Al  Al35      1.0  0.37469763871623907  0.6796303574492644  0.3911564625850335  1.0000
  P   P35       1.0  0.3026739396695374  0.5950272222844339  0.3843537414965981  1.0000
  Al  Al36      1.0  0.3634461293391442  0.6712331377630361  0.9319727891156466  1.0000
  P   P36       1.0  0.29699095218772015  0.5821892545713128  0.9251700680272114  1.0000
  Al  Al37      1.0  0.3527557491073082  0.6621322843843466  0.4727891156462592  1.0000
  P   P37       1.0  0.29214217242866775  0.5690135535816183  0.4659863945578238  1.0000
  Al  Al38      1.0  0.342670427086183  0.6523651946718559  0.013605442176871808  1.0000
  P   P38       1.0  0.28814752506847013  0.5555542610968961  0.006802721088436432  1.0000
  Al  Al39      1.0  0.33323160602724833  0.641972003692227  0.554421768707485  1.0000
  P   P39       1.0  0.28502342496997957  0.5418666842369751  0.5476190476190497  1.0000
  Al  Al40      1.0  0.32447807207085594  0.6309954192965271  0.09523809523809518  1.0000
  P   P40       1.0  0.2827827097306181  0.5280070681911487  0.08843537414965981  1.0000
  Al  Al41      1.0  0.31644579536565987  0.6194805466245087  0.636054421768706  1.0000
  P   P41       1.0  0.2814345869299361  0.5140323650946278  0.6292517006802706  1.0000
  Al  Al42      1.0  0.30916778225955976  0.6074747027579133  0.1768707482993233  1.0000
  P   P42       1.0  0.2809845962936931  0.5  0.17006802721088796  1.0000
  Al  Al43      1.0  0.3026739396695374  0.5950272222844339  0.717687074829934  1.0000
  P   P43       1.0  0.2814345869299361  0.48596763490537226  0.7108843537414988  1.0000
  Al  Al44      1.0  0.29699095218772015  0.5821892545713129  0.2585034013605419  1.0000
  P   P44       1.0  0.28278270973061803  0.47199293180885127  0.2517006802721065  1.0000
  Al  Al45      1.0  0.29214217242866775  0.5690135535816183  0.7993197278911575  1.0000
  P   P45       1.0  0.28502342496997957  0.45813331576302496  0.7925170068027222  1.0000
  Al  Al46      1.0  0.28814752506847013  0.5555542610968962  0.34013605442177003  1.0000
  P   P46       1.0  0.28814752506847013  0.444445738903104  0.33333333333333465  1.0000
  Al  Al47      1.0  0.28502342496997957  0.5418666842369751  0.8809523809523808  1.0000
  P   P47       1.0  0.29214217242866775  0.4309864464183818  0.8741496598639453  1.0000
  Al  Al48      1.0  0.2827827097306181  0.5280070681911488  0.4217687074829982  1.0000
  P   P48       1.0  0.2969909521877201  0.4178107454286873  0.41496598639456284  1.0000
  Al  Al49      1.0  0.2814345869299361  0.5140323650946278  0.9625850340136091  1.0000
  P   P49       1.0  0.3026739396695374  0.40497277771556606  0.9557823129251735  1.0000
  Al  Al50      1.0  0.2809845962936931  0.5  0.5034013605442168  1.0000
  P   P50       1.0  0.3091677822595597  0.3925252972420869  0.4965986394557814  1.0000
  Al  Al51      1.0  0.2814345869299361  0.4859676349053723  0.04421768707483415  1.0000
  P   P51       1.0  0.3164457953656598  0.3805194533754915  0.03741496598639878  1.0000
  Al  Al52      1.0  0.28278270973061803  0.47199293180885127  0.5850340136054449  1.0000
  P   P52       1.0  0.3244780720708559  0.369004580703473  0.5782312925170096  1.0000
  Al  Al53      1.0  0.2850234249699795  0.458133315763025  0.1258503401360575  1.0000
  P   P53       1.0  0.3332316060272482  0.35802799630777327  0.11904761904762215  1.0000
  Al  Al54      1.0  0.28814752506847013  0.444445738903104  0.6666666666666731  1.0000
  P   P54       1.0  0.342670427086183  0.34763480532814417  0.6598639455782377  1.0000
  Al  Al55      1.0  0.2921421724286677  0.4309864464183819  0.2074829931972809  1.0000
  P   P55       1.0  0.3527557491073081  0.33786771561565354  0.2006802721088455  1.0000
  Al  Al56      1.0  0.2969909521877201  0.4178107454286873  0.7482993197278917  1.0000
  P   P56       1.0  0.36344612933914416  0.32876686223696405  0.7414965986394562  1.0000
  Al  Al57      1.0  0.3026739396695374  0.40497277771556606  0.289115646258509  1.0000
  P   P57       1.0  0.37469763871623896  0.32036964255073586  0.2823129251700736  1.0000
  Al  Al58      1.0  0.3091677822595597  0.39252529724208696  0.8299319727891199  1.0000
  P   P58       1.0  0.386464042373121  0.31271056253385743  0.8231292517006843  1.0000
  Al  Al59      1.0  0.3164457953656598  0.3805194533754915  0.37074829931972764  1.0000
  P   P59       1.0  0.39869698963327854  0.30582109498898574  0.36394557823129225  1.0000
  Al  Al60      1.0  0.3244780720708558  0.36900458070347303  0.9115646258503385  1.0000
  P   P60       1.0  0.4113462126924603  0.2997295502160488  0.904761904761903  1.0000
  Al  Al61      1.0  0.3332316060272482  0.35802799630777327  0.4523809523809557  1.0000
  P   P61       1.0  0.4243597331798665  0.2944609596791509  0.44557823129252033  1.0000
  Al  Al62      1.0  0.3426704270861829  0.3476348053281442  0.9931972789115664  1.0000
  P   P62       1.0  0.43768407574842305  0.29003697314691734  0.9863945578231311  1.0000
  Al  Al63      1.0  0.3527557491073081  0.33786771561565354  0.5340136054421791  1.0000
  P   P63       1.0  0.45126448781645334  0.286475769728951  0.5272108843537437  1.0000
  Al  Al64      1.0  0.36344612933914416  0.32876686223696405  0.07482993197279171  1.0000
  P   P64       1.0  0.46504516455778017  0.2837919831739722  0.06802721088435634  1.0000
  Al  Al65      1.0  0.37469763871623896  0.32036964255073586  0.6156462585034025  1.0000
  P   P65       1.0  0.4789694782157278  0.2819966417366057  0.6088435374149671  1.0000
  Al  Al66      1.0  0.386464042373121  0.31271056253385743  0.15646258503401508  1.0000
  P   P66       1.0  0.4929802107987198  0.2810971228599172  0.14965986394557973  1.0000
  Al  Al67      1.0  0.39869698963327854  0.30582109498898574  0.6972789115646307  1.0000
  P   P67       1.0  0.50701978920128  0.2810971228599172  0.6904761904761951  1.0000
  Al  Al68      1.0  0.4113462126924603  0.2997295502160488  0.23809523809523844  1.0000
  P   P68       1.0  0.521030521784272  0.2819966417366057  0.23129251700680306  1.0000
  Al  Al69      1.0  0.4243597331798665  0.2944609596791509  0.7789115646258493  1.0000
  P   P69       1.0  0.5349548354422197  0.28379198317397214  0.7721088435374138  1.0000
  Al  Al70      1.0  0.43768407574842305  0.29003697314691734  0.3197278911564666  1.0000
  P   P70       1.0  0.5487355121835464  0.28647576972895095  0.3129251700680312  1.0000
  Al  Al71      1.0  0.45126448781645334  0.286475769728951  0.8605442176870776  1.0000
  P   P71       1.0  0.5623159242515767  0.29003697314691723  0.853741496598642  1.0000
  Al  Al72      1.0  0.46504516455778017  0.2837919831739722  0.40136054421768996  1.0000
  P   P72       1.0  0.5756402668201333  0.29446095967915087  0.3945578231292546  1.0000
  Al  Al73      1.0  0.4789694782157278  0.2819966417366057  0.9421768707483007  1.0000
  P   P73       1.0  0.5886537873075395  0.29972955021604875  0.9353741496598654  1.0000
  Al  Al74      1.0  0.49298021079871995  0.2810971228599172  0.4829931972789133  1.0000
  P   P74       1.0  0.6013030103667214  0.3058210949889857  0.47619047619047794  1.0000
  Al  Al75      1.0  0.50701978920128  0.2810971228599172  0.02380952380952592  1.0000
  P   P75       1.0  0.6135359576268788  0.3127105625338573  0.017006802721090546  1.0000
  Al  Al76      1.0  0.521030521784272  0.2819966417366057  0.5646258503401367  1.0000
  P   P76       1.0  0.6253023612837608  0.3203696425507357  0.5578231292517013  1.0000
  Al  Al77      1.0  0.5349548354422197  0.28379198317397214  0.10544217687075406  1.0000
  P   P77       1.0  0.6365538706608557  0.3287668622369639  0.0986394557823187  1.0000
  Al  Al78      1.0  0.5487355121835467  0.286475769728951  0.6462585034013648  1.0000
  P   P78       1.0  0.6472442508926918  0.33786771561565343  0.6394557823129294  1.0000
  Al  Al79      1.0  0.5623159242515767  0.29003697314691723  0.18707482993197266  1.0000
  P   P79       1.0  0.657329572913817  0.34763480532814406  0.18027210884353728  1.0000
  Al  Al80      1.0  0.5756402668201333  0.29446095967915087  0.7278911564625884  1.0000
  P   P80       1.0  0.6667683939727516  0.35802799630777304  0.7210884353741528  1.0000
  Al  Al81      1.0  0.5886537873075395  0.29972955021604875  0.268707482993196  1.0000
  P   P81       1.0  0.675521927929144  0.36900458070347275  0.26190476190476064  1.0000
  Al  Al82      1.0  0.6013030103667214  0.3058210949889857  0.8095238095238115  1.0000
  P   P82       1.0  0.6835542046343401  0.38051945337549137  0.8027210884353763  1.0000
  Al  Al83      1.0  0.6135359576268788  0.3127105625338573  0.35034013605442893  1.0000
  P   P83       1.0  0.6908322177404402  0.39252529724208673  0.34353741496599355  1.0000
  Al  Al84      1.0  0.6253023612837608  0.3203696425507357  0.8911564625850349  1.0000
  P   P84       1.0  0.6973260603304626  0.40497277771556583  0.8843537414965996  1.0000
  Al  Al85      1.0  0.6365538706608559  0.32876686223696405  0.43197278911565234  1.0000
  P   P85       1.0  0.7030090478122799  0.4178107454286871  0.42517006802721696  1.0000
  Al  Al86      1.0  0.6472442508926918  0.33786771561565343  0.9727891156462679  1.0000
  P   P86       1.0  0.7078578275713323  0.43098644641838163  0.9659863945578326  1.0000
  Al  Al87      1.0  0.657329572913817  0.34763480532814406  0.5136054421768661  1.0000
  P   P87       1.0  0.7118524749315299  0.4444457389031038  0.5068027210884307  1.0000
  Al  Al88      1.0  0.6667683939727516  0.35802799630777304  0.05442176870748349  1.0000
  P   P88       1.0  0.7149765750300205  0.4581333157630247  0.047619047619048116  1.0000
  Al  Al89      1.0  0.6755219279291441  0.3690045807034729  0.595238095238099  1.0000
  P   P89       1.0  0.7172172902693821  0.4719929318088511  0.5884353741496636  1.0000
  Al  Al90      1.0  0.6835542046343401  0.38051945337549137  0.13605442176870686  1.0000
  P   P90       1.0  0.7185654130700639  0.4859676349053721  0.1292517006802715  1.0000
  Al  Al91      1.0  0.6908322177404402  0.39252529724208673  0.6768707482993223  1.0000
  P   P91       1.0  0.7190154037063069  0.4999999999999998  0.670068027210887  1.0000
  Al  Al92      1.0  0.6973260603304627  0.404972777715566  0.2176870748299398  1.0000
  P   P92       1.0  0.7185654130700639  0.5140323650946276  0.2108843537415044  1.0000
  Al  Al93      1.0  0.7030090478122799  0.4178107454286871  0.7585034013605457  1.0000
  P   P93       1.0  0.7172172902693821  0.5280070681911486  0.7517006802721105  1.0000
  Al  Al94      1.0  0.7078578275713323  0.43098644641838163  0.2993197278911631  1.0000
  P   P94       1.0  0.7149765750300205  0.5418666842369749  0.29251700680272774  1.0000
  Al  Al95      1.0  0.7118524749315299  0.4444457389031038  0.8401360544217786  1.0000
  P   P95       1.0  0.71185247493153  0.5555542610968959  0.8333333333333435  1.0000
  Al  Al96      1.0  0.7149765750300205  0.45813331576302485  0.380952380952377  1.0000
  P   P96       1.0  0.7078578275713323  0.5690135535816182  0.3741496598639416  1.0000
  Al  Al97      1.0  0.7172172902693821  0.4719929318088511  0.9217687074829926  1.0000
  P   P97       1.0  0.70300904781228  0.5821892545713127  0.9149659863945571  1.0000
  Al  Al98      1.0  0.7185654130700639  0.4859676349053721  0.46258503401360984  1.0000
  P   P98       1.0  0.6973260603304627  0.5950272222844337  0.45578231292517446  1.0000
