data_image0
_chemical_formula_structural       AlPAlPAlPAlPAlPAlPAlPAlPAlPAlP
_chemical_formula_sum              "Al10 P10"
_cell_length_a       20.0
_cell_length_b       20.0
_cell_length_c       6.81
_cell_angle_alpha    90.0
_cell_angle_beta     90.0
_cell_angle_gamma    90.0

_space_group_name_H-M_alt    "P 1"
_space_group_IT_number       1

loop_
  _space_group_symop_operation_xyz
  'x, y, z'

loop_
  _atom_site_type_symbol
  _atom_site_label
  _atom_site_symmetry_multiplicity
  _atom_site_fract_x
  _atom_site_fract_y
  _atom_site_fract_z
  _atom_site_occupancy
  Al  Al1       1.0  0.6564395740759336  0.5  0.08333333333333326  1.0000
  P   P1        1.0  0.6265622740202087  0.5919528745167496  0.9166666666666666  1.0000
  Al  Al2       1.0  0.6265622740202087  0.5919528745167496  0.5833333333333333  1.0000
  P   P2        1.0  0.5483424869822419  0.648782876331355  0.4166666666666666  1.0000
  Al  Al3       1.0  0.5483424869822419  0.648782876331355  0.08333333333333326  1.0000
  P   P3        1.0  0.45165751301775814  0.648782876331355  0.9166666666666666  1.0000
  Al  Al4       1.0  0.45165751301775814  0.648782876331355  0.5833333333333331  1.0000
  P   P4        1.0  0.37343772597979136  0.5919528745167496  0.4166666666666665  1.0000
  Al  Al5       1.0  0.37343772597979136  0.5919528745167496  0.08333333333333326  1.0000
  P   P5        1.0  0.34356042592406655  0.5  0.9166666666666666  1.0000
  Al  Al6       1.0  0.34356042592406655  0.5  0.5833333333333333  1.0000
  P   P6        1.0  0.37343772597979136  0.4080471254832504  0.4166666666666667  1.0000
  Al  Al7       1.0  0.37343772597979136  0.4080471254832504  0.08333333333333326  1.0000
  P   P7        1.0  0.451657513017758  0.3512171236686451  0.9166666666666664  1.0000
  Al  Al8       1.0  0.451657513017758  0.3512171236686451  0.5833333333333335  1.0000
  P   P8        1.0  0.5483424869822419  0.35121712366864505  0.41666666666666685  1.0000
  Al  Al9       1.0  0.5483424869822419  0.35121712366864505  0.08333333333333326  1.0000
  P   P9        1.0  0.6265622740202087  0.4080471254832504  0.9166666666666664  1.0000
  Al  Al10      1.0  0.6265622740202087  0.4080471254832504  0.5833333333333335  1.0000
  P   P10       1.0  0.6564395740759336  0.5  0.41666666666666685  1.0000
