data_image0
_chemical_formula_structural       AlPAlPAlPAlPAlPAlPAlPAlPAlPAlPAlPAlP
_chemical_formula_sum              "Al12 P12"
_cell_length_a       20.0
_cell_length_b       20.0
_cell_length_c       3.897114317029974
_cell_angle_alpha    90.0
_cell_angle_beta     90.0
_cell_angle_gamma    90.0

_space_group_name_H-M_alt    "P 1"
_space_group_IT_number       1

loop_
  _space_group_symop_operation_xyz
  'x, y, z'

loop_
  _atom_site_type_symbol
  _atom_site_label
  _atom_site_symmetry_multiplicity
  _atom_site_fract_x
  _atom_site_fract_y
  _atom_site_fract_z
  _atom_site_occupancy
  Al  Al1       1.0  0.8222887597610882  0.5  8.546500828371394e-16  1.0000
  P   P1        1.0  0.802852369309737  0.6102292478057394  8.546500828371394e-16  1.0000
  Al  Al2       1.0  0.7791102533072823  0.6611443798805441  0.5000000000000007  1.0000
  P   P2        1.0  0.7071632215156692  0.7468875134946888  0.5000000000000007  1.0000
  Al  Al3       1.0  0.6611443798805441  0.7791102533072822  6.267433940805689e-16  1.0000
  P   P3        1.0  0.5559648558150481  0.8173924693214085  6.661338147750939e-16  1.0000
  Al  Al4       1.0  0.5  0.8222887597610882  0.5000000000000004  1.0000
  P   P4        1.0  0.38977075219426066  0.802852369309737  0.5000000000000004  1.0000
  Al  Al5       1.0  0.338855620119456  0.7791102533072823  3.988367053239984e-16  1.0000
  P   P5        1.0  0.25311248650531126  0.7071632215156692  4.440892098500626e-16  1.0000
  Al  Al6       1.0  0.22088974669271783  0.6611443798805442  0.5000000000000001  1.0000
  P   P6        1.0  0.18260753067859153  0.5559648558150482  0.5000000000000001  1.0000
  Al  Al7       1.0  0.17771124023891194  0.5  5.697667218914263e-17  1.0000
  P   P7        1.0  0.19714763069026314  0.38977075219426066  0.9999999999999999  1.0000
  Al  Al8       1.0  0.2208897466927177  0.3388556201194561  0.49999999999999983  1.0000
  P   P8        1.0  0.2928367784843308  0.25311248650531126  0.49999999999999983  1.0000
  Al  Al9       1.0  0.33885562011945586  0.22088974669271788  0.9999999999999998  1.0000
  P   P9        1.0  0.4440351441849517  0.1826075306785916  0.9999999999999997  1.0000
  Al  Al10      1.0  0.49999999999999994  0.17771124023891194  0.4999999999999994  1.0000
  P   P10       1.0  0.6102292478057392  0.1971476306902631  0.4999999999999994  1.0000
  Al  Al11      1.0  0.6611443798805439  0.22088974669271766  0.9999999999999993  1.0000
  P   P11       1.0  0.7468875134946886  0.2928367784843306  0.9999999999999992  1.0000
  Al  Al12      1.0  0.7791102533072822  0.33885562011945586  0.49999999999999895  1.0000
  P   P12       1.0  0.8173924693214085  0.4440351441849517  0.49999999999999895  1.0000
