data_image0
_chemical_formula_structural       AlPAlPAlPAlPAlPAlPAlPAlPAlPAlPAlPAlPAlPAlPAlPAlPAlPAlPAlPAlPAlPAlPAlPAlP
_chemical_formula_sum              "Al24 P24"
_cell_length_a       20.0
_cell_length_b       20.0
_cell_length_c       3.897114317029974
_cell_angle_alpha    90.0
_cell_angle_beta     90.0
_cell_angle_gamma    90.0

_space_group_name_H-M_alt    "P 1"
_space_group_IT_number       1

loop_
  _space_group_symop_operation_xyz
  'x, y, z'

loop_
  _atom_site_type_symbol
  _atom_site_label
  _atom_site_symmetry_multiplicity
  _atom_site_fract_x
  _atom_site_fract_y
  _atom_site_fract_z
  _atom_site_occupancy
  Al  Al1       1.0  0.14457751952217612  0.5  1.994183526619992e-15  1.0000
  P   P1        1.0  0.13478493864281704  0.6119297116300961  1.994183526619992e-15  1.0000
  Al  Al2       1.0  0.12261407315181616  0.666828938097281  0.5000000000000019  1.0000
  P   P2        1.0  0.08418562529171658  0.7724102308575939  0.5000000000000019  1.0000
  Al  Al3       1.0  0.05822050661456468  0.8222887597610881  1.7662768378634215e-15  1.0000
  P   P3        1.0  0.9937750269893777  0.9143264430313383  1.7763568394002505e-15  1.0000
  Al  Al4       1.0  0.9557851350545351  0.9557851350545349  0.5000000000000016  1.0000
  P   P4        1.0  0.8697144765995267  0.028006992819318288  0.5000000000000016  1.0000
  Al  Al5       1.0  0.8222887597610882  0.05822050661456446  1.538370149106851e-15  1.0000
  P   P5        1.0  0.7204584956114788  0.10570473861947383  1.5543122344752192e-15  1.0000
  Al  Al6       1.0  0.6668289380972813  0.12261407315181616  0.5000000000000012  1.0000
  P   P6        1.0  0.5561786324723985  0.14212470745712058  0.5000000000000012  1.0000
  Al  Al7       1.0  0.5  0.14457751952217612  1.1965101159719951e-15  1.0000
  P   P7        1.0  0.3880702883699039  0.13478493864281704  1.1102230246251565e-15  1.0000
  Al  Al8       1.0  0.33317106190271906  0.12261407315181616  0.500000000000001  1.0000
  P   P8        1.0  0.22758976914240622  0.08418562529171658  0.500000000000001  1.0000
  Al  Al9       1.0  0.17771124023891205  0.05822050661456468  9.686034272154247e-16  1.0000
  P   P9        1.0  0.08567355696866193  0.993775026989378  8.881784197001252e-16  1.0000
  Al  Al10      1.0  0.04421486494546505  0.9557851350545351  0.5000000000000006  1.0000
  P   P10       1.0  0.9719930071806819  0.8697144765995269  0.5000000000000006  1.0000
  Al  Al11      1.0  0.9417794933854357  0.8222887597610884  5.127900497022837e-16  1.0000
  P   P11       1.0  0.8942952613805264  0.7204584956114792  4.440892098500626e-16  1.0000
  Al  Al12      1.0  0.8773859268481841  0.6668289380972813  0.5000000000000001  1.0000
  P   P12       1.0  0.8578752925428794  0.5561786324723987  0.5000000000000001  1.0000
  Al  Al13      1.0  0.8554224804778239  0.5000000000000001  5.697667218914263e-17  1.0000
  P   P13       1.0  0.865215061357183  0.3880702883699041  0.9999999999999999  1.0000
  Al  Al14      1.0  0.8773859268481838  0.3331710619027192  0.5000000000000001  1.0000
  P   P14       1.0  0.9158143747082833  0.22758976914240653  0.5000000000000001  1.0000
  Al  Al15      1.0  0.9417794933854353  0.1777112402389121  5.697667218914263e-17  1.0000
  P   P15       1.0  0.006224973010622126  0.08567355696866202  0.9999999999999999  1.0000
  Al  Al16      1.0  0.04421486494546478  0.044214864945465226  0.5000000000000001  1.0000
  P   P16       1.0  0.13028552340047317  0.9719930071806819  0.5000000000000001  1.0000
  Al  Al17      1.0  0.17771124023891166  0.9417794933854358  5.697667218914263e-17  1.0000
  P   P17       1.0  0.2795415043885209  0.8942952613805264  0.9999999999999999  1.0000
  Al  Al18      1.0  0.33317106190271845  0.8773859268481841  0.49999999999999917  1.0000
  P   P18       1.0  0.443821367527601  0.8578752925428795  0.49999999999999917  1.0000
  Al  Al19      1.0  0.49999999999999994  0.8554224804778239  0.9999999999999991  1.0000
  P   P19       1.0  0.6119297116300959  0.865215061357183  0.999999999999999  1.0000
  Al  Al20      1.0  0.6668289380972808  0.8773859268481838  0.4999999999999983  1.0000
  P   P20       1.0  0.7724102308575935  0.9158143747082833  0.4999999999999983  1.0000
  Al  Al21      1.0  0.8222887597610877  0.9417794933854353  0.9999999999999982  1.0000
  P   P21       1.0  0.9143264430313378  0.006224973010621949  0.9999999999999981  1.0000
  Al  Al22      1.0  0.9557851350545349  0.04421486494546487  0.4999999999999983  1.0000
  P   P22       1.0  0.028006992819318066  0.13028552340047309  0.4999999999999983  1.0000
  Al  Al23      1.0  0.05822050661456446  0.17771124023891166  0.9999999999999982  1.0000
  P   P23       1.0  0.1057047386194736  0.2795415043885208  0.9999999999999981  1.0000
  Al  Al24      1.0  0.12261407315181594  0.33317106190271845  0.4999999999999983  1.0000
  P   P24       1.0  0.14212470745712058  0.443821367527601  0.4999999999999983  1.0000
