data_image0
_chemical_formula_structural       AlPAlPAlPAlPAlPAlPAlPAlPAlPAlPAlPAlPAlPAlPAlPAlPAlPAlP
_chemical_formula_sum              "Al18 P18"
_cell_length_a       20.0
_cell_length_b       20.0
_cell_length_c       3.8971143170299736
_cell_angle_alpha    90.0
_cell_angle_beta     90.0
_cell_angle_gamma    90.0

_space_group_name_H-M_alt    "P 1"
_space_group_IT_number       1

loop_
  _space_group_symop_operation_xyz
  'x, y, z'

loop_
  _atom_site_type_symbol
  _atom_site_label
  _atom_site_symmetry_multiplicity
  _atom_site_fract_x
  _atom_site_fract_y
  _atom_site_fract_z
  _atom_site_occupancy
  Al  Al1       1.0  0.9834331396416321  0.5  5.127900497022838e-16  1.0000
  P   P1        1.0  0.9704021367965897  0.6114873544442068  5.127900497022838e-16  1.0000
  Al  Al2       1.0  0.9542785539646053  0.6653438717086091  0.5000000000000004  1.0000
  P   P2        1.0  0.9039024958036717  0.7656508505300347  0.5000000000000004  1.0000
  Al  Al3       1.0  0.8703312702420333  0.8107448322735037  3.988367053239985e-16  1.0000
  P   P3        1.0  0.7886862528508534  0.887772933452941  4.440892098500626e-16  1.0000
  Al  Al4       1.0  0.7417165698208161  0.9186653799609232  0.5000000000000003  1.0000
  P   P4        1.0  0.6386501872488921  0.9631238776824328  0.5000000000000003  1.0000
  Al  Al5       1.0  0.5839472837225722  0.9760887039821129  2.848833609457132e-16  1.0000
  P   P5        1.0  0.47189086280588316  0.9826152472829346  4.440892098500626e-16  1.0000
  Al  Al6       1.0  0.41605271627742796  0.9760887039821129  0.5000000000000001  1.0000
  P   P6        1.0  0.3085219151551674  0.9438960954186474  0.5000000000000001  1.0000
  Al  Al7       1.0  0.25828343017918404  0.9186653799609235  5.697667218914264e-17  1.0000
  P   P7        1.0  0.16824805045230226  0.8516365232382261  2.220446049250313e-16  1.0000
  Al  Al8       1.0  0.1296687297579669  0.8107448322735039  0.5000000000000001  1.0000
  P   P8        1.0  0.06798836700221154  0.7169643967529002  0.5000000000000001  1.0000
  Al  Al9       1.0  0.04572144603539474  0.6653438717086092  5.697667218914264e-17  1.0000
  P   P9        1.0  0.01983566230431393  0.5561231619657064  2.220446049250313e-16  1.0000
  Al  Al10      1.0  0.016566860358367918  0.5000000000000001  0.4999999999999996  1.0000
  P   P10       1.0  0.029597863203410225  0.38851264555579346  0.4999999999999996  1.0000
  Al  Al11      1.0  0.04572144603539474  0.334656128291391  0.9999999999999996  1.0000
  P   P11       1.0  0.0960975041963283  0.2343491494699655  0.9999999999999997  1.0000
  Al  Al12      1.0  0.12966872975796684  0.1892551677264964  0.4999999999999996  1.0000
  P   P12       1.0  0.2113137471491466  0.11222706654705919  0.4999999999999996  1.0000
  Al  Al13      1.0  0.25828343017918376  0.08133462003907682  0.9999999999999996  1.0000
  P   P13       1.0  0.36134981275110784  0.036876122317567275  0.9999999999999997  1.0000
  Al  Al14      1.0  0.41605271627742796  0.023911296017887287  0.4999999999999996  1.0000
  P   P14       1.0  0.5281091371941169  0.0173847527170655  0.4999999999999996  1.0000
  Al  Al15      1.0  0.5839472837225719  0.023911296017887287  0.9999999999999996  1.0000
  P   P15       1.0  0.6914780848448325  0.05610390458135264  0.9999999999999997  1.0000
  Al  Al16      1.0  0.7417165698208161  0.08133462003907672  0.4999999999999996  1.0000
  P   P16       1.0  0.8317519495476979  0.14836347676177394  0.4999999999999996  1.0000
  Al  Al17      1.0  0.870331270242033  0.1892551677264962  0.9999999999999996  1.0000
  P   P17       1.0  0.9320116329977886  0.28303560324709987  0.9999999999999997  1.0000
  Al  Al18      1.0  0.9542785539646051  0.33465612829139063  0.4999999999999987  1.0000
  P   P18       1.0  0.9801643376956861  0.44387683803429323  0.4999999999999987  1.0000
