data_image0
_chemical_formula_structural       AlPAlPAlPAlPAlPAlPAlPAlPAlPAlPAlPAlPAlPAlPAlPAlPAlPAlPAlPAlPAlPAlPAlPAlPAlPAlPAlPAlPAlPAlP
_chemical_formula_sum              "Al30 P30"
_cell_length_a       20.0
_cell_length_b       20.0
_cell_length_c       3.8971143170299736
_cell_angle_alpha    90.0
_cell_angle_beta     90.0
_cell_angle_gamma    90.0

_space_group_name_H-M_alt    "P 1"
_space_group_IT_number       1

loop_
  _space_group_symop_operation_xyz
  'x, y, z'

loop_
  _atom_site_type_symbol
  _atom_site_label
  _atom_site_symmetry_multiplicity
  _atom_site_fract_x
  _atom_site_fract_y
  _atom_site_fract_z
  _atom_site_occupancy
  Al  Al1       1.0  0.30572189940272043  0.5  9.68603427215425e-16  1.0000
  P   P1        1.0  0.29788066926432166  0.6121348152513105  9.68603427215425e-16  1.0000
  Al  Al2       1.0  0.2881149427594556  0.6675190024337162  0.5000000000000009  1.0000
  P   P2        1.0  0.2571309232743424  0.7755731195143485  0.5000000000000009  1.0000
  Al  Al3       1.0  0.2360635813225238  0.8277166206157202  8.546500828371396e-16  1.0000
  P   P3        1.0  0.18329092282001613  0.92696755610807  8.881784197001252e-16  1.0000
  Al  Al4       1.0  0.15184270935686262  0.9735914499179986  0.5000000000000008  1.0000
  P   P4        1.0  0.07958783024483163  0.05970146168222179  0.5000000000000008  1.0000
  Al  Al5       1.0  0.039133183103953195  0.098768060314949  7.406967384588543e-16  1.0000
  P   P5        1.0  0.9505539683169723  0.16797372763526863  8.881784197001252e-16  1.0000
  Al  Al6       1.0  0.9028609497013602  0.19777563326820569  0.5000000000000006  1.0000
  P   P6        1.0  0.8018287359758514  0.24705233639708735  0.5000000000000006  1.0000
  Al  Al7       1.0  0.7489817596555025  0.2662870627486653  5.127900497022838e-16  1.0000
  P   P7        1.0  0.6399121395376203  0.2934811733035214  6.661338147750939e-16  1.0000
  Al  Al8       1.0  0.5842208719656614  0.3013080705337188  0.5000000000000006  1.0000
  P   P8        1.0  0.4718807112286622  0.30523107539148153  0.5000000000000006  1.0000
  Al  Al9       1.0  0.4157791280343389  0.3013080705337188  5.127900497022838e-16  1.0000
  P   P9        1.0  0.30507823077032925  0.2817885155574378  6.661338147750939e-16  1.0000
  Al  Al10      1.0  0.2510182403444977  0.26628706274866554  0.5000000000000001  1.0000
  P   P10       1.0  0.14679476696575575  0.22417804615602144  0.5000000000000001  1.0000
  Al  Al11      1.0  0.09713905029864006  0.19777563326820569  5.697667218914264e-17  1.0000
  P   P11       1.0  0.003948066711529652  0.13491752114577693  2.220446049250313e-16  1.0000
  Al  Al12      1.0  0.9608668168960471  0.09876806031494922  0.5000000000000001  1.0000
  P   P12       1.0  0.882781216263278  0.01790805378917293  0.5000000000000001  1.0000
  Al  Al13      1.0  0.8481572906431376  0.9735914499179987  5.697667218914264e-17  1.0000
  P   P13       1.0  0.7885897884086457  0.8782635192834114  2.220446049250313e-16  1.0000
  Al  Al14      1.0  0.7639364186774764  0.8277166206157203  0.5000000000000001  1.0000
  P   P14       1.0  0.7254904005254976  0.7220870538752161  0.5000000000000001  1.0000
  Al  Al15      1.0  0.7118850572405444  0.6675190024337165  5.697667218914264e-17  1.0000
  P   P15       1.0  0.6962407986487837  0.5562043185207529  2.220446049250313e-16  1.0000
  Al  Al16      1.0  0.6942781005972798  0.5000000000000001  0.5000000000000001  1.0000
  P   P16       1.0  0.7021193307356784  0.3878651847486895  0.5000000000000001  1.0000
  Al  Al17      1.0  0.7118850572405444  0.3324809975662841  5.697667218914264e-17  1.0000
  P   P17       1.0  0.7428690767256576  0.22442688048565165  2.220446049250313e-16  1.0000
  Al  Al18      1.0  0.7639364186774762  0.1722833793842803  0.49999999999999917  1.0000
  P   P18       1.0  0.8167090771799836  0.07303244389193023  0.49999999999999917  1.0000
  Al  Al19      1.0  0.8481572906431374  0.026408550082001537  0.9999999999999991  1.0000
  P   P19       1.0  0.9204121697551685  0.9402985383177781  0.9999999999999992  1.0000
  Al  Al20      1.0  0.9608668168960467  0.901231939685051  0.49999999999999917  1.0000
  P   P20       1.0  0.049446031683027504  0.8320262723647315  0.49999999999999917  1.0000
  Al  Al21      1.0  0.09713905029863952  0.8022243667317945  0.9999999999999991  1.0000
  P   P21       1.0  0.1981712640241486  0.7529476636029127  0.9999999999999992  1.0000
  Al  Al22      1.0  0.25101824034449755  0.7337129372513347  0.49999999999999917  1.0000
  P   P22       1.0  0.3600878604623799  0.7065188266964787  0.49999999999999917  1.0000
  Al  Al23      1.0  0.4157791280343382  0.6986919294662813  0.9999999999999991  1.0000
  P   P23       1.0  0.5281192887713376  0.6947689246085187  0.9999999999999992  1.0000
  Al  Al24      1.0  0.5842208719656609  0.6986919294662813  0.49999999999999917  1.0000
  P   P24       1.0  0.6949217692296706  0.7182114844425621  0.49999999999999917  1.0000
  Al  Al25      1.0  0.7489817596555023  0.7337129372513347  0.9999999999999991  1.0000
  P   P25       1.0  0.8532052330342442  0.7758219538439787  0.9999999999999992  1.0000
  Al  Al26      1.0  0.9028609497013597  0.802224366731794  0.49999999999999917  1.0000
  P   P26       1.0  0.9960519332884701  0.8650824788542227  0.49999999999999917  1.0000
  Al  Al27      1.0  0.03913318310395275  0.9012319396850506  0.9999999999999991  1.0000
  P   P27       1.0  0.11721878373672179  0.982091946210827  0.9999999999999992  1.0000
  Al  Al28      1.0  0.1518427093568624  0.02640855008200127  0.49999999999999917  1.0000
  P   P28       1.0  0.2114102115913543  0.1217364807165886  0.49999999999999917  1.0000
  Al  Al29      1.0  0.23606358132252336  0.1722833793842794  0.9999999999999991  1.0000
  P   P29       1.0  0.27450959947450215  0.2779129461247835  0.9999999999999992  1.0000
  Al  Al30      1.0  0.2881149427594556  0.33248099756628346  0.49999999999999917  1.0000
  P   P30       1.0  0.30375920135121626  0.4437956814792472  0.49999999999999917  1.0000
