data_image0
_chemical_formula_structural       AlPAlPAlPAlPAlPAlPAlPAlPAlPAlPAlPAlPAlPAlPAlPAlPAlPAlPAlPAlPAlPAlPAlPAlPAlPAlPAlPAlPAlPAlPAlPAlPAlPAlPAlPAlPAlPAlPAlPAlPAlPAlPAlPAlPAlPAlPAlPAlPAlPAlPAlPAlPAlPAlPAlPAlPAlPAlPAlPAlPAlPAlPAlPAlPAlPAlPAlPAlPAlPAlPAlPAlPAlPAlPAlPAlPAlPAlPAlPAlPAlPAlPAlPAlPAlPAlPAlPAlPAlPAlPAlPAlPAlPAlPAlPAlPAlPAlPAlPAlPAlPAlPAlPAlPAlPAlPAlPAlPAlPAlPAlPAlPAlPAlPAlPAlPAlPAlPAlPAlPAlPAlPAlPAlPAlPAlPAlPAlPAlPAlPAlPAlPAlPAlPAlPAlPAlPAlPAlPAlPAlPAlPAlPAlPAlPAlPAlPAlPAlPAlPAlPAlPAlPAlPAlPAlPAlPAlPAlPAlPAlPAlPAlPAlPAlPAlPAlPAlPAlPAlPAlPAlPAlPAlPAlPAlPAlPAlPAlPAlPAlPAlPAlPAlPAlPAlPAlPAlPAlPAlPAlPAlPAlPAlPAlPAlPAlPAlPAlPAlPAlPAlPAlPAlPAlPAlPAlPAlPAlPAlPAlPAlPAlPAlPAlPAlPAlPAlP
_chemical_formula_sum              "Al218 P218"
_cell_length_a       20.0
_cell_length_b       20.0
_cell_length_c       71.09848732568084
_cell_angle_alpha    90.0
_cell_angle_beta     90.0
_cell_angle_gamma    90.0

_space_group_name_H-M_alt    "P 1"
_space_group_IT_number       1

loop_
  _space_group_symop_operation_xyz
  'x, y, z'

loop_
  _atom_site_type_symbol
  _atom_site_label
  _atom_site_symmetry_multiplicity
  _atom_site_fract_x
  _atom_site_fract_y
  _atom_site_fract_z
  _atom_site_occupancy
  Al  Al1       1.0  0.8266554206952326  0.5  0.0015290519877675982  1.0000
  P   P1        1.0  0.8073118989863662  0.6107391557262957  0.9984709480122324  1.0000
  Al  Al2       1.0  0.8265197529650754  0.5094135430739682  0.5290519877675841  1.0000
  P   P2        1.0  0.8039929884417849  0.6195492653587309  0.5259938837920489  1.0000
  Al  Al3       1.0  0.826112862466645  0.5188192668133066  0.05657492354740055  1.0000
  P   P3        1.0  0.8004215669262371  0.6282600717104269  0.05351681957186538  1.0000
  Al  Al4       1.0  0.8254350871824565  0.528209358378494  0.5840978593272169  1.0000
  P   P4        1.0  0.796600601031549  0.636864339173151  0.5810397553516817  1.0000
  Al  Al5       1.0  0.8244869901047551  0.5375760179148344  0.1116207951070335  1.0000
  P   P5        1.0  0.7925332646329241  0.645354920634917  0.10856269113149833  1.0000
  Al  Al6       1.0  0.8232693587678681  0.546911465031384  0.6391437308868502  1.0000
  P   P6        1.0  0.7882229362525729  0.653724763416714  0.636085626911315  1.0000
  Al  Al7       1.0  0.8217832045940416  0.5562079452637129  0.16666666666666605  1.0000
  P   P7        1.0  0.7836731962533521  0.6619669151307965  0.1636085626911309  1.0000
  Al  Al8       1.0  0.8200297620533052  0.5654577365151303  0.6941896024464831  1.0000
  P   P8        1.0  0.7788878238647454  0.6700745294556657  0.6911314984709479  1.0000
  Al  Al9       1.0  0.8180104876380629  0.574653155471024  0.22171253822629938  1.0000
  P   P9        1.0  0.7738707940436576  0.6780408718229494  0.21865443425076422  1.0000
  Al  Al10      1.0  0.8157270586532608  0.583786563980985  0.7492354740061157  1.0000
  P   P10       1.0  0.7686262741726257  0.6858593250114524  0.7461773700305805  1.0000
  Al  Al11      1.0  0.81318137182314  0.5928503754034172  0.2767584097859328  1.0000
  P   P11       1.0  0.7631586205981947  0.6935233946437349  0.2737003058103976  1.0000
  Al  Al12      1.0  0.8103755417157252  0.6018370609073607  0.8042813455657489  1.0000
  P   P12       1.0  0.7574723750123296  0.701026714580649  0.8012232415902137  1.0000
  Al  Al13      1.0  0.8073118989863662  0.6107391557262957  0.3318042813455645  1.0000
  P   P13       1.0  0.7515722606798706  0.7083630522093555  0.32874617737002937  1.0000
  Al  Al14      1.0  0.8039929884417849  0.6195492653587309  0.8593272171253815  1.0000
  P   P14       1.0  0.7454631785151664  0.7155263136204276  0.8562691131498463  1.0000
  Al  Al15      1.0  0.8004215669262371  0.6282600717104269  0.38685015290519864  1.0000
  P   P15       1.0  0.739150203011142  0.7225105486697405  0.3837920489296635  1.0000
  Al  Al16      1.0  0.796600601031549  0.636864339173151  0.914373088685014  1.0000
  P   P16       1.0  0.7326385780241849  0.7293099559209426  0.9113149847094789  1.0000
  Al  Al17      1.0  0.7925332646329241  0.645354920634917  0.44189602446483117  1.0000
  P   P17       1.0  0.7259337124183498  0.7359188874644034  0.43883792048929604  1.0000
  Al  Al18      1.0  0.7882229362525729  0.653724763416714  0.9694189602446482  1.0000
  P   P18       1.0  0.7190411755724995  0.7423318536086349  0.9663608562691128  1.0000
  Al  Al19      1.0  0.7836731962533521  0.6619669151307965  0.4969418960244637  1.0000
  P   P19       1.0  0.7119666927541157  0.748543527440289  0.4938837920489285  1.0000
  Al  Al20      1.0  0.7788878238647454  0.6700745294556657  0.024464831804280895  1.0000
  P   P20       1.0  0.7047161403636205  0.754548749248944  0.021406727828745725  1.0000
  Al  Al21      1.0  0.7738707940436576  0.6780408718229494  0.551987767584098  1.0000
  P   P21       1.0  0.6972955410531597  0.7603425308130047  0.5489296636085628  1.0000
  Al  Al22      1.0  0.7686262741726257  0.6858593250114524  0.07951070336391344  1.0000
  P   P22       1.0  0.6897110587239029  0.7659200595431553  0.07645259938837827  1.0000
  Al  Al23      1.0  0.7631586205981947  0.6935233946437349  0.6070336391437305  1.0000
  P   P23       1.0  0.6819689934060155  0.7712767024799234  0.6039755351681954  1.0000
  Al  Al24      1.0  0.7574723750123296  0.701026714580649  0.134556574923546  1.0000
  P   P24       1.0  0.6740757760255551  0.7764080101420365  0.13149847094801081  1.0000
  Al  Al25      1.0  0.7515722606798706  0.7083630522093555  0.6620795107033615  1.0000
  P   P25       1.0  0.66603796306264  0.7813097202223713  0.6590214067278263  1.0000
  Al  Al26      1.0  0.7454631785151664  0.7155263136204276  0.18960244648317856  1.0000
  P   P26       1.0  0.6578622311053258  0.7859777611284278  0.18654434250764337  1.0000
  Al  Al27      1.0  0.739150203011142  0.7225105486697405  0.7171253822629956  1.0000
  P   P27       1.0  0.6495553713037163  0.7904082553643867  0.7140672782874604  1.0000
  Al  Al28      1.0  0.732638578024185  0.7293099559209426  0.24464831804281273  1.0000
  P   P28       1.0  0.6411242837289115  0.7945975227519422  0.24159021406727757  1.0000
  Al  Al29      1.0  0.7259337124183498  0.7359188874644034  0.7721712538226297  1.0000
  P   P29       1.0  0.6325759716414825  0.79854208348723  0.7691131498470946  1.0000
  Al  Al30      1.0  0.7190411755724995  0.7423318536086349  0.29969418960244526  1.0000
  P   P30       1.0  0.6239175356742308  0.8022386610313199  0.29663608562691013  1.0000
  Al  Al31      1.0  0.7119666927541157  0.748543527440289  0.8272171253822622  1.0000
  P   P31       1.0  0.6151561679340685  0.805684184831862  0.824159021406727  1.0000
  Al  Al32      1.0  0.7047161403636206  0.754548749248944  0.3547400611620778  1.0000
  P   P32       1.0  0.6062991460279108  0.8088757928736344  0.35168195718654266  1.0000
  Al  Al33      1.0  0.6972955410531597  0.7603425308130047  0.8822629969418948  1.0000
  P   P33       1.0  0.5973538270175535  0.8118108340558674  0.8792048929663596  1.0000
  Al  Al34      1.0  0.6897110587239029  0.7659200595431553  0.4097859327217104  1.0000
  P   P34       1.0  0.588327641308548  0.814486870394374  0.40672782874617525  1.0000
  Al  Al35      1.0  0.6819689934060156  0.7712767024799234  0.9373088685015272  1.0000
  P   P35       1.0  0.5792280864781549  0.8169016790466554  0.9342507645259922  1.0000
  Al  Al36      1.0  0.6740757760255551  0.7764080101420365  0.4648318042813461  1.0000
  P   P36       1.0  0.5700627210475012  0.8190532541582979  0.4617737003058109  1.0000
  Al  Al37      1.0  0.66603796306264  0.7813097202223713  0.99235474006116  1.0000
  P   P37       1.0  0.5608391582031145  0.8209398085291317  0.9892966360856246  1.0000
  Al  Al38      1.0  0.6578622311053258  0.7859777611284278  0.5198776758409756  1.0000
  P   P38       1.0  0.5515650594730505  0.8225597750977642  0.5168195718654403  1.0000
  Al  Al39      1.0  0.6495553713037163  0.7904082553643867  0.04740061162079419  1.0000
  P   P39       1.0  0.542248128362864  0.8239118082432537  0.04434250764525902  1.0000
  Al  Al40      1.0  0.6411242837289115  0.7945975227519422  0.5749235474006112  1.0000
  P   P40       1.0  0.5328961039567134  0.824994784902848  0.5718654434250761  1.0000
  Al  Al41      1.0  0.6325759716414825  0.79854208348723  0.10244648318042675  1.0000
  P   P41       1.0  0.5235167544889102  0.8258078055048523  0.09938837920489157  1.0000
  Al  Al42      1.0  0.6239175356742309  0.8022386610313199  0.6299694189602437  1.0000
  P   P42       1.0  0.5141178708912562  0.8263501947158561  0.6269113149847085  1.0000
  Al  Al43      1.0  0.6151561679340685  0.805684184831862  0.1574923547400593  1.0000
  P   P43       1.0  0.5047072603215264  0.8266215020016973  0.15443425076452413  1.0000
  Al  Al44      1.0  0.6062991460279108  0.8088757928736344  0.6850152905198763  1.0000
  P   P44       1.0  0.49529273967847376  0.8266215020016973  0.6819571865443411  1.0000
  Al  Al45      1.0  0.5973538270175535  0.8118108340558674  0.21253822629969185  1.0000
  P   P45       1.0  0.48588212910874384  0.8263501947158561  0.2094801223241567  1.0000
  Al  Al46      1.0  0.588327641308548  0.814486870394374  0.7400611620795089  1.0000
  P   P46       1.0  0.4764832455110898  0.8258078055048523  0.7370030581039736  1.0000
  Al  Al47      1.0  0.5792280864781549  0.8169016790466554  0.2675840978593244  1.0000
  P   P47       1.0  0.4671038960432867  0.824994784902848  0.2645259938837892  1.0000
  Al  Al48      1.0  0.5700627210475012  0.8190532541582979  0.7951070336391414  1.0000
  P   P48       1.0  0.4577518716371362  0.8239118082432537  0.7920489296636062  1.0000
  Al  Al49      1.0  0.5608391582031146  0.8209398085291317  0.32262996941895694  1.0000
  P   P49       1.0  0.44843494052694965  0.8225597750977642  0.31957186544342175  1.0000
  Al  Al50      1.0  0.5515650594730505  0.8225597750977642  0.8501529051987741  1.0000
  P   P50       1.0  0.4391608417968856  0.8209398085291317  0.8470948012232388  1.0000
  Al  Al51      1.0  0.542248128362864  0.8239118082432537  0.3776758409785895  1.0000
  P   P51       1.0  0.4299372789524989  0.8190532541582979  0.37461773700305434  1.0000
  Al  Al52      1.0  0.5328961039567134  0.824994784902848  0.9051987767584065  1.0000
  P   P52       1.0  0.4207719135218452  0.8169016790466554  0.9021406727828711  1.0000
  Al  Al53      1.0  0.5235167544889102  0.8258078055048523  0.4327217125382252  1.0000
  P   P53       1.0  0.411672358691452  0.814486870394374  0.4296636085626901  1.0000
  Al  Al54      1.0  0.5141178708912562  0.8263501947158561  0.9602446483180421  1.0000
  P   P54       1.0  0.40264617298244665  0.8118108340558674  0.957186544342507  1.0000
  Al  Al55      1.0  0.5047072603215264  0.8266215020016973  0.4877675840978578  1.0000
  P   P55       1.0  0.3937008539720894  0.8088757928736344  0.4847094801223226  1.0000
  Al  Al56      1.0  0.49529273967847376  0.8266215020016973  0.015290519877673337  1.0000
  P   P56       1.0  0.38484383206593165  0.8056841848318621  0.01223241590213817  1.0000
  Al  Al57      1.0  0.48588212910874384  0.8263501947158561  0.5428134556574936  1.0000
  P   P57       1.0  0.3760824643257692  0.8022386610313199  0.5397553516819584  1.0000
  Al  Al58      1.0  0.4764832455110899  0.8258078055048523  0.07033639143730909  1.0000
  P   P58       1.0  0.36742402835851773  0.7985420834872301  0.06727828746177392  1.0000
  Al  Al59      1.0  0.4671038960432867  0.824994784902848  0.5978593272171229  1.0000
  P   P59       1.0  0.3588757162710886  0.7945975227519422  0.5948012232415877  1.0000
  Al  Al60      1.0  0.4577518716371361  0.8239118082432537  0.12538226299693844  1.0000
  P   P60       1.0  0.3504446286962837  0.7904082553643867  0.12232415902140326  1.0000
  Al  Al61      1.0  0.44843494052694965  0.8225597750977642  0.6529051987767522  1.0000
  P   P61       1.0  0.34213776889467423  0.7859777611284278  0.649847094801217  1.0000
  Al  Al62      1.0  0.4391608417968856  0.8209398085291317  0.1804281345565742  1.0000
  P   P62       1.0  0.33396203693736026  0.7813097202223713  0.177370030581039  1.0000
  Al  Al63      1.0  0.42993727895249895  0.8190532541582979  0.7079510703363879  1.0000
  P   P63       1.0  0.325924223974445  0.7764080101420365  0.7048929663608527  1.0000
  Al  Al64      1.0  0.4207719135218452  0.8169016790466554  0.23547400611620992  1.0000
  P   P64       1.0  0.31803100659398464  0.7712767024799234  0.23241590214067478  1.0000
  Al  Al65      1.0  0.41167235869145213  0.8144868703943742  0.7629969418960237  1.0000
  P   P65       1.0  0.3102889412760972  0.7659200595431553  0.7599388379204886  1.0000
  Al  Al66      1.0  0.40264617298244665  0.8118108340558674  0.2905198776758329  1.0000
  P   P66       1.0  0.3027044589468404  0.7603425308130048  0.2874617737002978  1.0000
  Al  Al67      1.0  0.39370085397208937  0.8088757928736344  0.8180428134556531  1.0000
  P   P67       1.0  0.2952838596363795  0.754548749248944  0.8149847094801179  1.0000
  Al  Al68      1.0  0.38484383206593165  0.8056841848318621  0.3455657492354687  1.0000
  P   P68       1.0  0.28803330724588433  0.748543527440289  0.3425076452599335  1.0000
  Al  Al69      1.0  0.3760824643257692  0.8022386610313199  0.8730886850152889  1.0000
  P   P69       1.0  0.28095882442750064  0.742331853608635  0.8700305810397537  1.0000
  Al  Al70      1.0  0.36742402835851773  0.7985420834872301  0.4006116207951044  1.0000
  P   P70       1.0  0.27406628758165036  0.7359188874644034  0.39755351681956924  1.0000
  Al  Al71      1.0  0.3588757162710886  0.7945975227519422  0.9281345565749246  1.0000
  P   P71       1.0  0.26736142197581525  0.7293099559209426  0.9250764525993892  1.0000
  Al  Al72      1.0  0.3504446286962837  0.7904082553643867  0.4556574923547402  1.0000
  P   P72       1.0  0.2608497969888581  0.7225105486697405  0.452599388379205  1.0000
  Al  Al73      1.0  0.34213776889467423  0.7859777611284278  0.9831804281345542  1.0000
  P   P73       1.0  0.2545368214848337  0.7155263136204276  0.9801223241590188  1.0000
  Al  Al74      1.0  0.33396203693736026  0.7813097202223713  0.5107033639143695  1.0000
  P   P74       1.0  0.24842773932012951  0.7083630522093556  0.5076452599388344  1.0000
  Al  Al75      1.0  0.325924223974445  0.7764080101420365  0.038226299694185034  1.0000
  P   P75       1.0  0.2425276249876705  0.701026714580649  0.03516819571864987  1.0000
  Al  Al76      1.0  0.31803100659398464  0.7712767024799234  0.5657492354740052  1.0000
  P   P76       1.0  0.23684137940180536  0.693523394643735  0.56269113149847  1.0000
  Al  Al77      1.0  0.3102889412760972  0.7659200595431553  0.09327217125382078  1.0000
  P   P77       1.0  0.23137372582737437  0.6858593250114524  0.09021406727828561  1.0000
  Al  Al78      1.0  0.3027044589468404  0.7603425308130048  0.6207951070336346  1.0000
  P   P78       1.0  0.2261292059563425  0.6780408718229495  0.6177370030580994  1.0000
  Al  Al79      1.0  0.2952838596363795  0.754548749248944  0.14831804281345012  1.0000
  P   P79       1.0  0.22111217613525458  0.6700745294556657  0.14525993883791496  1.0000
  Al  Al80      1.0  0.28803330724588433  0.748543527440289  0.675840978593264  1.0000
  P   P80       1.0  0.21632680374664812  0.6619669151307965  0.6727828746177287  1.0000
  Al  Al81      1.0  0.28095882442750064  0.742331853608635  0.2033639143730859  1.0000
  P   P81       1.0  0.21177706374742727  0.6537247634167141  0.20030581039755072  1.0000
  Al  Al82      1.0  0.27406628758165036  0.7359188874644034  0.7308868501528998  1.0000
  P   P82       1.0  0.20746673536707602  0.645354920634917  0.7278287461773646  1.0000
  Al  Al83      1.0  0.26736142197581525  0.7293099559209426  0.2584097859327216  1.0000
  P   P83       1.0  0.2033993989684511  0.636864339173151  0.2553516819571865  1.0000
  Al  Al84      1.0  0.2608497969888581  0.7225105486697405  0.7859327217125355  1.0000
  P   P84       1.0  0.199578433073763  0.6282600717104269  0.7828746177370003  1.0000
  Al  Al85      1.0  0.2545368214848337  0.7155263136204276  0.313455657492351  1.0000
  P   P85       1.0  0.1960070115582153  0.6195492653587311  0.31039755351681586  1.0000
  Al  Al86      1.0  0.2484277393201294  0.7083630522093555  0.8409785932721712  1.0000
  P   P86       1.0  0.19268810101363376  0.6107391557262957  0.837920489296636  1.0000
  Al  Al87      1.0  0.2425276249876705  0.701026714580649  0.3685015290519803  1.0000
  P   P87       1.0  0.18962445828427488  0.6018370609073608  0.36544342507644517  1.0000
  Al  Al88      1.0  0.23684137940180536  0.693523394643735  0.8960244648318005  1.0000
  P   P88       1.0  0.18681862817686012  0.5928503754034175  0.8929663608562654  1.0000
  Al  Al89      1.0  0.23137372582737437  0.6858593250114524  0.4235474006116161  1.0000
  P   P89       1.0  0.18427294134673913  0.5837865639809852  0.420489296636081  1.0000
  Al  Al90      1.0  0.2261292059563425  0.6780408718229495  0.9510703363914363  1.0000
  P   P90       1.0  0.18198951236193728  0.5746531554710241  0.9480122324159013  1.0000
  Al  Al91      1.0  0.22111217613525458  0.6700745294556657  0.47859327217125186  1.0000
  P   P91       1.0  0.17997023794669487  0.5654577365151303  0.4755351681957167  1.0000
  Al  Al92      1.0  0.21632680374664812  0.6619669151307965  0.006116207951060983  1.0000
  P   P92       1.0  0.17821679540595847  0.556207945263713  0.003058103975525816  1.0000
  Al  Al93      1.0  0.2117770637474272  0.653724763416714  0.5336391437308812  1.0000
  P   P93       1.0  0.176730641232132  0.546911465031384  0.530581039755346  1.0000
  Al  Al94      1.0  0.20746673536707602  0.645354920634917  0.061162079510696736  1.0000
  P   P94       1.0  0.175513009895245  0.5375760179148344  0.05810397553516156  1.0000
  Al  Al95      1.0  0.2033993989684511  0.636864339173151  0.5886850152905169  1.0000
  P   P95       1.0  0.17456491281754355  0.5282093583784943  0.5856269113149817  1.0000
  Al  Al96      1.0  0.199578433073763  0.6282600717104269  0.1162079510703325  1.0000
  P   P96       1.0  0.17388713753335502  0.5188192668133066  0.11314984709479732  1.0000
  Al  Al97      1.0  0.1960070115582153  0.6195492653587311  0.6437308868501462  1.0000
  P   P97       1.0  0.17348024703492457  0.5094135430739685  0.640672782874611  1.0000
  Al  Al98      1.0  0.19268810101363376  0.6107391557262957  0.17125382262996822  1.0000
  P   P98       1.0  0.1733445793047675  0.5  0.16819571865443306  1.0000
  Al  Al99      1.0  0.18962445828427488  0.6018370609073608  0.698776758409782  1.0000
  P   P99       1.0  0.17348024703492457  0.49058645692603187  0.6957186544342469  1.0000
  Al  Al100     1.0  0.18681862817686007  0.5928503754034172  0.22629969418959758  1.0000
  P   P100      1.0  0.17388713753335502  0.4811807331866936  0.22324159021406242  1.0000
  Al  Al101     1.0  0.18427294134673913  0.5837865639809852  0.7538226299694114  1.0000
  P   P101      1.0  0.17456491281754355  0.4717906416215061  0.7507645259938762  1.0000
  Al  Al102     1.0  0.18198951236193728  0.5746531554710241  0.2813455657492333  1.0000
  P   P102      1.0  0.175513009895245  0.4624239820851657  0.2782874617736982  1.0000
  Al  Al103     1.0  0.17997023794669487  0.5654577365151303  0.8088685015290472  1.0000
  P   P103      1.0  0.17673064123213195  0.45308853496861606  0.8058103975535119  1.0000
  Al  Al104     1.0  0.17821679540595847  0.556207945263713  0.33639143730886273  1.0000
  P   P104      1.0  0.17821679540595842  0.44379205473628736  0.33333333333332754  1.0000
  Al  Al105     1.0  0.176730641232132  0.546911465031384  0.8639143730886829  1.0000
  P   P105      1.0  0.17997023794669487  0.43454226348486985  0.8608562691131477  1.0000
  Al  Al106     1.0  0.175513009895245  0.5375760179148344  0.3914373088684984  1.0000
  P   P106      1.0  0.18198951236193725  0.42534684452897614  0.3883792048929633  1.0000
  Al  Al107     1.0  0.17456491281754355  0.528209358378494  0.9189602446483188  1.0000
  P   P107      1.0  0.18427294134673913  0.416213436019015  0.9159021406727834  1.0000
  Al  Al108     1.0  0.17388713753335502  0.5188192668133066  0.4464831804281278  1.0000
  P   P108      1.0  0.18681862817686  0.4071496245965829  0.44342507645259266  1.0000
  Al  Al109     1.0  0.17348024703492457  0.5094135430739685  0.974006116207948  1.0000
  P   P109      1.0  0.18962445828427477  0.3981629390926395  0.970948012232413  1.0000
  Al  Al110     1.0  0.1733445793047675  0.5  0.5015290519877635  1.0000
  P   P110      1.0  0.19268810101363376  0.38926084427370444  0.4984709480122283  1.0000
  Al  Al111     1.0  0.17348024703492457  0.49058645692603187  0.029051987767579075  1.0000
  P   P111      1.0  0.1960070115582152  0.3804507346412693  0.02599388379204391  1.0000
  Al  Al112     1.0  0.17388713753335502  0.4811807331866936  0.5565749235473992  1.0000
  P   P112      1.0  0.19957843307376294  0.37173992828957325  0.553516819571864  1.0000
  Al  Al113     1.0  0.17456491281754355  0.4717906416215061  0.08409785932721484  1.0000
  P   P113      1.0  0.20339939896845105  0.3631356608268492  0.08103975535167966  1.0000
  Al  Al114     1.0  0.175513009895245  0.46242398208516566  0.6116207951070223  1.0000
  P   P114      1.0  0.20746673536707597  0.35464507936508316  0.6085626911314871  1.0000
  Al  Al115     1.0  0.17673064123213195  0.45308853496861606  0.1391437308868506  1.0000
  P   P115      1.0  0.21177706374742714  0.34627523658328613  0.13608562691131543  1.0000
  Al  Al116     1.0  0.17821679540595842  0.44379205473628736  0.6666666666666708  1.0000
  P   P116      1.0  0.21632680374664803  0.3380330848692037  0.6636085626911357  1.0000
  Al  Al117     1.0  0.17997023794669487  0.43454226348486985  0.19418960244647354  1.0000
  P   P117      1.0  0.22111217613525458  0.3299254705443344  0.19113149847093835  1.0000
  Al  Al118     1.0  0.18198951236193725  0.42534684452897614  0.7217125382262938  1.0000
  P   P118      1.0  0.22612920595634242  0.32195912817705086  0.7186544342507586  1.0000
  Al  Al119     1.0  0.18427294134673913  0.416213436019015  0.24923547400610926  1.0000
  P   P119      1.0  0.2313737258273743  0.31414067498854764  0.2461773700305741  1.0000
  Al  Al120     1.0  0.18681862817686  0.4071496245965829  0.7767584097859295  1.0000
  P   P120      1.0  0.23684137940180527  0.3064766053562652  0.7737003058103943  1.0000
  Al  Al121     1.0  0.18962445828427482  0.39816293909263933  0.30428134556574504  1.0000
  P   P121      1.0  0.24252762498767044  0.29897328541935114  0.3012232415902099  1.0000
  Al  Al122     1.0  0.19268810101363376  0.38926084427370444  0.8318042813455653  1.0000
  P   P122      1.0  0.2484277393201294  0.2916369477906446  0.8287461773700301  1.0000
  Al  Al123     1.0  0.1960070115582152  0.3804507346412693  0.3593272171253808  1.0000
  P   P123      1.0  0.25453682148483353  0.2844736863795725  0.35626911314984566  1.0000
  Al  Al124     1.0  0.19957843307376294  0.37173992828957325  0.8868501529051882  1.0000
  P   P124      1.0  0.260849796988858  0.2774894513302596  0.883792048929653  1.0000
  Al  Al125     1.0  0.20339939896845105  0.3631356608268492  0.4143730886850037  1.0000
  P   P125      1.0  0.2673614219758151  0.27069004407905756  0.4113149847094686  1.0000
  Al  Al126     1.0  0.20746673536707597  0.35464507936508316  0.9418960244648241  1.0000
  P   P126      1.0  0.27406628758165025  0.26408111253559674  0.9388379204892887  1.0000
  Al  Al127     1.0  0.21177706374742714  0.34627523658328613  0.46941896024465224  1.0000
  P   P127      1.0  0.2809588244275005  0.25766814639136526  0.46636085626911705  1.0000
  Al  Al128     1.0  0.21632680374664806  0.3380330848692036  0.9969418960244596  1.0000
  P   P128      1.0  0.2880333072458844  0.25145647255971104  0.9938837920489246  1.0000
  Al  Al129     1.0  0.22111217613525458  0.3299254705443344  0.5244648318042752  1.0000
  P   P129      1.0  0.29528385963637943  0.24545125075105606  0.52140672782874  1.0000
  Al  Al130     1.0  0.22612920595634242  0.32195912817705086  0.05198776758409077  1.0000
  P   P130      1.0  0.30270445894684034  0.23965746918699524  0.04892966360855561  1.0000
  Al  Al131     1.0  0.2313737258273743  0.31414067498854764  0.5795107033638982  1.0000
  P   P131      1.0  0.31028894127609724  0.23407994045684474  0.576452599388363  1.0000
  Al  Al132     1.0  0.23684137940180527  0.3064766053562652  0.10703363914372653  1.0000
  P   P132      1.0  0.3180310065939844  0.22872329752007672  0.10397553516819136  1.0000
  Al  Al133     1.0  0.24252762498767044  0.29897328541935114  0.6345565749235468  1.0000
  P   P133      1.0  0.32592422397444487  0.22359198985796358  0.6314984709480116  1.0000
  Al  Al134     1.0  0.2484277393201294  0.2916369477906446  0.16207951070336227  1.0000
  P   P134      1.0  0.33396203693736015  0.21869027977762878  0.15902140672782708  1.0000
  Al  Al135     1.0  0.25453682148483364  0.28447368637957243  0.6896024464831697  1.0000
  P   P135      1.0  0.3421377688946743  0.2140222388715723  0.6865443425076345  1.0000
  Al  Al136     1.0  0.260849796988858  0.2774894513302596  0.21712538226299802  1.0000
  P   P136      1.0  0.3504446286962836  0.20959174463561325  0.21406727828746286  1.0000
  Al  Al137     1.0  0.2673614219758151  0.27069004407905756  0.7446483180428183  1.0000
  P   P137      1.0  0.3588757162710885  0.20540247724805794  0.741590214067283  1.0000
  Al  Al138     1.0  0.27406628758165025  0.26408111253559674  0.272171253822621  1.0000
  P   P138      1.0  0.36742402835851773  0.20145791651277  0.26911314984708584  1.0000
  Al  Al139     1.0  0.2809588244275005  0.25766814639136526  0.7996941896024412  1.0000
  P   P139      1.0  0.376082464325769  0.19776133896868023  0.796636085626906  1.0000
  Al  Al140     1.0  0.28803330724588416  0.2514564725597112  0.3272171253822567  1.0000
  P   P140      1.0  0.38484383206593153  0.194315815168138  0.3241590214067216  1.0000
  Al  Al141     1.0  0.29528385963637943  0.24545125075105606  0.8547400611620769  1.0000
  P   P141      1.0  0.3937008539720893  0.19112420712636566  0.8516819571865417  1.0000
  Al  Al142     1.0  0.30270445894684034  0.23965746918699524  0.3822629969418925  1.0000
  P   P142      1.0  0.4026461729824467  0.1881891659441327  0.3792048929663573  1.0000
  Al  Al143     1.0  0.31028894127609724  0.23407994045684474  0.9097859327217126  1.0000
  P   P143      1.0  0.4116723586914522  0.18551312960562588  0.9067278287461776  1.0000
  Al  Al144     1.0  0.3180310065939844  0.22872329752007672  0.4373088685015282  1.0000
  P   P144      1.0  0.42077191352184506  0.18309832095334466  0.4342507645259931  1.0000
  Al  Al145     1.0  0.32592422397444487  0.22359198985796358  0.9648318042813357  1.0000
  P   P145      1.0  0.42993727895249895  0.1809467458417022  0.9617737003058003  1.0000
  Al  Al146     1.0  0.33396203693736015  0.21869027977762878  0.4923547400611512  1.0000
  P   P146      1.0  0.4391608417968857  0.17906019147086824  0.489296636085616  1.0000
  Al  Al147     1.0  0.34213776889467407  0.21402223887157237  0.019877675840979513  1.0000
  P   P147      1.0  0.44843494052694954  0.17744022490223596  0.016819571865444347  1.0000
  Al  Al148     1.0  0.3504446286962836  0.20959174463561325  0.5474006116207998  1.0000
  P   P148      1.0  0.4577518716371361  0.1760881917567464  0.5443425076452646  1.0000
  Al  Al149     1.0  0.3588757162710885  0.20540247724805794  0.07492354740060247  1.0000
  P   P149      1.0  0.4671038960432868  0.175005215097152  0.0718654434250673  1.0000
  Al  Al150     1.0  0.36742402835851773  0.20145791651277  0.6024464831804227  1.0000
  P   P150      1.0  0.47648324551109006  0.17419219449514767  0.5993883792048875  1.0000
  Al  Al151     1.0  0.376082464325769  0.19776133896868023  0.12996941896023823  1.0000
  P   P151      1.0  0.4858821291087438  0.17364980528414395  0.12691131498470307  1.0000
  Al  Al152     1.0  0.38484383206593153  0.194315815168138  0.6574923547400456  1.0000
  P   P152      1.0  0.49529273967847376  0.17337849799830277  0.6544342507645105  1.0000
  Al  Al153     1.0  0.3937008539720893  0.19112420712636566  0.18501529051987398  1.0000
  P   P153      1.0  0.5047072603215265  0.17337849799830277  0.1819571865443388  1.0000
  Al  Al154     1.0  0.40264617298244637  0.18818916594413274  0.7125382262996942  1.0000
  P   P154      1.0  0.514117870891256  0.17364980528414395  0.709480122324159  1.0000
  Al  Al155     1.0  0.4116723586914519  0.18551312960562596  0.24006116207949693  1.0000
  P   P155      1.0  0.5235167544889102  0.17419219449514767  0.23700305810396177  1.0000
  Al  Al156     1.0  0.42077191352184506  0.18309832095334466  0.7675840978593171  1.0000
  P   P156      1.0  0.5328961039567134  0.175005215097152  0.764525993883782  1.0000
  Al  Al157     1.0  0.42993727895249895  0.1809467458417022  0.29510703363913265  1.0000
  P   P157      1.0  0.5422481283628641  0.1760881917567464  0.2920489296635975  1.0000
  Al  Al158     1.0  0.4391608417968854  0.17906019147086827  0.8226299694189528  1.0000
  P   P158      1.0  0.5515650594730503  0.17744022490223596  0.8195718654434176  1.0000
  Al  Al159     1.0  0.44843494052694954  0.17744022490223596  0.35015290519876846  1.0000
  P   P159      1.0  0.5608391582031146  0.17906019147086824  0.34709480122323333  1.0000
  Al  Al160     1.0  0.4577518716371361  0.1760881917567464  0.8776758409785886  1.0000
  P   P160      1.0  0.5700627210475012  0.1809467458417022  0.8746177370030535  1.0000
  Al  Al161     1.0  0.4671038960432865  0.175005215097152  0.4051987767584042  1.0000
  P   P161      1.0  0.5792280864781548  0.18309832095334466  0.402140672782869  1.0000
  Al  Al162     1.0  0.47648324551108967  0.17419219449514772  0.9327217125382116  1.0000
  P   P162      1.0  0.588327641308548  0.18551312960562596  0.9296636085626765  1.0000
  Al  Al163     1.0  0.4858821291087438  0.17364980528414395  0.46024464831803996  1.0000
  P   P163      1.0  0.5973538270175535  0.1881891659441327  0.4571865443425048  1.0000
  Al  Al164     1.0  0.49529273967847376  0.17337849799830277  0.9877675840978603  1.0000
  P   P164      1.0  0.6062991460279109  0.19112420712636574  0.9847094801223248  1.0000
  Al  Al165     1.0  0.5047072603215261  0.17337849799830277  0.5152905198776757  1.0000
  P   P165      1.0  0.6151561679340684  0.19431581516813795  0.5122324159021405  1.0000
  Al  Al166     1.0  0.514117870891256  0.17364980528414395  0.04281345565747842  1.0000
  P   P166      1.0  0.6239175356742309  0.19776133896868014  0.03975535168194325  1.0000
  Al  Al167     1.0  0.5235167544889102  0.17419219449514767  0.5703363914372986  1.0000
  P   P167      1.0  0.6325759716414825  0.20145791651277004  0.5672782874617635  1.0000
  Al  Al168     1.0  0.5328961039567132  0.175005215097152  0.09785932721712697  1.0000
  P   P168      1.0  0.6411242837289115  0.20540247724805788  0.09480122324159179  1.0000
  Al  Al169     1.0  0.5422481283628638  0.17608819175674634  0.6253822629969343  1.0000
  P   P169      1.0  0.6495553713037163  0.20959174463561323  0.6223241590213991  1.0000
  Al  Al170     1.0  0.5515650594730503  0.17744022490223596  0.15290519877674993  1.0000
  P   P170      1.0  0.6578622311053259  0.21402223887157237  0.14984709480121475  1.0000
  Al  Al171     1.0  0.5608391582031146  0.17906019147086824  0.6804281345565701  1.0000
  P   P171      1.0  0.6660379630626401  0.21869027977762887  0.677370030581035  1.0000
  Al  Al172     1.0  0.570062721047501  0.18094674584170214  0.20795107033638566  1.0000
  P   P172      1.0  0.674075776025555  0.22359198985796352  0.2048929663608505  1.0000
  Al  Al173     1.0  0.5792280864781548  0.18309832095334466  0.7354740061161931  1.0000
  P   P173      1.0  0.6819689934060156  0.2287232975200767  0.7324159021406579  1.0000
  Al  Al174     1.0  0.588327641308548  0.18551312960562596  0.2629969418960214  1.0000
  P   P174      1.0  0.689711058723903  0.23407994045684483  0.2599388379204863  1.0000
  Al  Al175     1.0  0.5973538270175532  0.18818916594413265  0.7905198776758416  1.0000
  P   P175      1.0  0.6972955410531596  0.23965746918699515  0.7874617737003065  1.0000
  Al  Al176     1.0  0.6062991460279106  0.1911242071263656  0.3180428134556444  1.0000
  P   P176      1.0  0.7047161403636205  0.245451250751056  0.31498470948010926  1.0000
  Al  Al177     1.0  0.6151561679340684  0.19431581516813795  0.8455657492354646  1.0000
  P   P177      1.0  0.7119666927541157  0.25145647255971115  0.8425076452599294  1.0000
  Al  Al178     1.0  0.6239175356742309  0.19776133896868014  0.37308868501528014  1.0000
  P   P178      1.0  0.7190411755724996  0.25766814639136526  0.37003058103974495  1.0000
  Al  Al179     1.0  0.6325759716414822  0.2014579165127699  0.9006116207951005  1.0000
  P   P179      1.0  0.7259337124183496  0.26408111253559663  0.8975535168195652  1.0000
  Al  Al180     1.0  0.6411242837289115  0.20540247724805788  0.42813455657491584  1.0000
  P   P180      1.0  0.7326385780241849  0.2706900440790575  0.4250764525993807  1.0000
  Al  Al181     1.0  0.6495553713037163  0.20959174463561323  0.955657492354736  1.0000
  P   P181      1.0  0.7391502030111421  0.2774894513302596  0.952599388379201  1.0000
  Al  Al182     1.0  0.6578622311053257  0.2140222388715722  0.48318042813455164  1.0000
  P   P182      1.0  0.7454631785151663  0.2844736863795723  0.48012232415901646  1.0000
  Al  Al183     1.0  0.6660379630626397  0.21869027977762867  0.010703363914354369  1.0000
  P   P183      1.0  0.7515722606798706  0.2916369477906446  0.007645259938819201  1.0000
  Al  Al184     1.0  0.674075776025555  0.22359198985796352  0.5382262996941746  1.0000
  P   P184      1.0  0.7574723750123296  0.29897328541935114  0.5351681957186394  1.0000
  Al  Al185     1.0  0.6819689934060156  0.2287232975200767  0.06574923547400291  1.0000
  P   P185      1.0  0.7631586205981948  0.3064766053562652  0.06269113149846774  1.0000
  Al  Al186     1.0  0.6897110587239027  0.23407994045684466  0.5932721712538231  1.0000
  P   P186      1.0  0.7686262741726257  0.3141406749885476  0.590214067278288  1.0000
  Al  Al187     1.0  0.6972955410531596  0.23965746918699515  0.12079510703362586  1.0000
  P   P187      1.0  0.7738707940436576  0.32195912817705075  0.11773700305809069  1.0000
  Al  Al188     1.0  0.7047161403636205  0.245451250751056  0.6483180428134461  1.0000
  P   P188      1.0  0.7788878238647454  0.3299254705443344  0.6452599388379109  1.0000
  Al  Al189     1.0  0.7119666927541156  0.251456472559711  0.1758409785932744  1.0000
  P   P189      1.0  0.783673196253352  0.33803308486920347  0.17278287461773925  1.0000
  Al  Al190     1.0  0.7190411755724994  0.2576681463913651  0.7033639143730818  1.0000
  P   P190      1.0  0.7882229362525729  0.346275236583286  0.7003058103975466  1.0000
  Al  Al191     1.0  0.7259337124183496  0.26408111253559663  0.2308868501528974  1.0000
  P   P191      1.0  0.7925332646329241  0.3546450793650832  0.22782874617736223  1.0000
  Al  Al192     1.0  0.7326385780241849  0.2706900440790575  0.7584097859327176  1.0000
  P   P192      1.0  0.796600601031549  0.3631356608268492  0.7553516819571824  1.0000
  Al  Al193     1.0  0.7391502030111419  0.27748945133025943  0.2859327217125203  1.0000
  P   P193      1.0  0.8004215669262371  0.37173992828957314  0.2828746177369852  1.0000
  Al  Al194     1.0  0.7454631785151663  0.2844736863795723  0.8134556574923406  1.0000
  P   P194      1.0  0.8039929884417849  0.3804507346412691  0.8103975535168053  1.0000
  Al  Al195     1.0  0.7515722606798706  0.2916369477906446  0.34097859327216884  1.0000
  P   P195      1.0  0.8073118989863662  0.38926084427370444  0.3379204892966337  1.0000
  Al  Al196     1.0  0.7574723750123294  0.2989732854193509  0.8685015290519891  1.0000
  P   P196      1.0  0.8103755417157252  0.3981629390926393  0.8654434250764539  1.0000
  Al  Al197     1.0  0.7631586205981947  0.30647660535626503  0.3960244648317918  1.0000
  P   P197      1.0  0.81318137182314  0.4071496245965828  0.3929663608562567  1.0000
  Al  Al198     1.0  0.7686262741726257  0.3141406749885476  0.9235474006116121  1.0000
  P   P198      1.0  0.8157270586532608  0.416213436019015  0.9204892966360767  1.0000
  Al  Al199     1.0  0.7738707940436576  0.32195912817705075  0.4510703363914276  1.0000
  P   P199      1.0  0.8180104876380629  0.42534684452897614  0.44801223241589244  1.0000
  Al  Al200     1.0  0.7788878238647453  0.3299254705443342  0.9785932721712349  1.0000
  P   P200      1.0  0.8200297620533052  0.43454226348486974  0.9755351681956999  1.0000
  Al  Al201     1.0  0.783673196253352  0.33803308486920347  0.5061162079510633  1.0000
  P   P201      1.0  0.8217832045940416  0.4437920547362872  0.5030581039755281  1.0000
  Al  Al202     1.0  0.7882229362525729  0.346275236583286  0.03363914373087886  1.0000
  P   P202      1.0  0.8232693587678681  0.4530885349686162  0.030581039755343695  1.0000
  Al  Al203     1.0  0.7925332646329241  0.35464507936508294  0.5611620795106991  1.0000
  P   P203      1.0  0.8244869901047551  0.46242398208516544  0.5581039755351639  1.0000
  Al  Al204     1.0  0.796600601031549  0.363135660826849  0.08868501529050182  1.0000
  P   P204      1.0  0.8254350871824565  0.471790641621506  0.08562691131496665  1.0000
  Al  Al205     1.0  0.8004215669262371  0.37173992828957314  0.616207951070322  1.0000
  P   P205      1.0  0.826112862466645  0.4811807331866936  0.6131498470947868  1.0000
  Al  Al206     1.0  0.8039929884417849  0.3804507346412691  0.14373088685015037  1.0000
  P   P206      1.0  0.8265197529650754  0.49058645692603187  0.14067278287461518  1.0000
  Al  Al207     1.0  0.8073118989863662  0.3892608442737042  0.6712538226299578  1.0000
  P   P207      1.0  0.8266554206952326  0.49999999999999994  0.6681957186544226  1.0000
  Al  Al208     1.0  0.8103755417157252  0.3981629390926393  0.19877675840977332  1.0000
  P   P208      1.0  0.8265197529650754  0.5094135430739682  0.19571865443423817  1.0000
  Al  Al209     1.0  0.81318137182314  0.4071496245965828  0.7262996941895936  1.0000
  P   P209      1.0  0.826112862466645  0.5188192668133066  0.7232415902140583  1.0000
  Al  Al210     1.0  0.8157270586532608  0.4162134360190147  0.25382262996942184  1.0000
  P   P210      1.0  0.8254350871824565  0.5282093583784939  0.2507645259938867  1.0000
  Al  Al211     1.0  0.8180104876380627  0.42534684452897586  0.7813455657492293  1.0000
  P   P211      1.0  0.8244869901047551  0.5375760179148344  0.7782874617736941  1.0000
  Al  Al212     1.0  0.8200297620533052  0.43454226348486974  0.30886850152904477  1.0000
  P   P212      1.0  0.8232693587678681  0.5469114650313841  0.30581039755350964  1.0000
  Al  Al213     1.0  0.8217832045940416  0.4437920547362872  0.836391437308865  1.0000
  P   P213      1.0  0.8217832045940416  0.556207945263713  0.8333333333333298  1.0000
  Al  Al214     1.0  0.8232693587678681  0.4530885349686159  0.3639143730886678  1.0000
  P   P214      1.0  0.8200297620533052  0.5654577365151302  0.3608562691131326  1.0000
  Al  Al215     1.0  0.8244869901047551  0.46242398208516544  0.8914373088684879  1.0000
  P   P215      1.0  0.8180104876380629  0.574653155471024  0.8883792048929527  1.0000
  Al  Al216     1.0  0.8254350871824565  0.471790641621506  0.4189602446483163  1.0000
  P   P216      1.0  0.8157270586532608  0.5837865639809852  0.4159021406727812  1.0000
  Al  Al217     1.0  0.826112862466645  0.4811807331866933  0.9464831804281366  1.0000
  P   P217      1.0  0.81318137182314  0.5928503754034171  0.9434250764526012  1.0000
  Al  Al218     1.0  0.8265197529650754  0.4905864569260316  0.47400611620793925  1.0000
  P   P218      1.0  0.8103755417157252  0.6018370609073607  0.47094801223240407  1.0000
