data_image0
_chemical_formula_structural       AlPAlPAlPAlPAlPAlPAlPAlPAlPAlPAlPAlPAlPAlPAlPAlPAlPAlPAlPAlPAlPAlPAlPAlP
_chemical_formula_sum              "Al24 P24"
_cell_length_a       20.0
_cell_length_b       20.0
_cell_length_c       6.809999999999999
_cell_angle_alpha    90.0
_cell_angle_beta     90.0
_cell_angle_gamma    90.0

_space_group_name_H-M_alt    "P 1"
_space_group_IT_number       1

loop_
  _space_group_symop_operation_xyz
  'x, y, z'

loop_
  _atom_site_type_symbol
  _atom_site_label
  _atom_site_symmetry_multiplicity
  _atom_site_fract_x
  _atom_site_fract_y
  _atom_site_fract_z
  _atom_site_occupancy
  Al  Al1       1.0  0.8754549777822405  0.5  0.08333333333333229  1.0000
  P   P1        1.0  0.8626616596486543  0.5971748988285877  0.9166666666666656  1.0000
  Al  Al2       1.0  0.8626616596486543  0.5971748988285877  0.5833333333333324  1.0000
  P   P2        1.0  0.8251535487367422  0.6877274888911202  0.4166666666666657  1.0000
  Al  Al3       1.0  0.8251535487367422  0.6877274888911202  0.08333333333333241  1.0000
  P   P3        1.0  0.7654867608200667  0.7654867608200667  0.9166666666666657  1.0000
  Al  Al4       1.0  0.7654867608200667  0.7654867608200667  0.5833333333333325  1.0000
  P   P4        1.0  0.6877274888911202  0.8251535487367422  0.41666666666666574  1.0000
  Al  Al5       1.0  0.6877274888911202  0.8251535487367422  0.08333333333333252  1.0000
  P   P5        1.0  0.5971748988285878  0.8626616596486543  0.9166666666666656  1.0000
  Al  Al6       1.0  0.5971748988285878  0.8626616596486543  0.5833333333333326  1.0000
  P   P6        1.0  0.5  0.8754549777822405  0.41666666666666596  1.0000
  Al  Al7       1.0  0.5  0.8754549777822405  0.08333333333333229  1.0000
  P   P7        1.0  0.4028251011714124  0.8626616596486543  0.9166666666666659  1.0000
  Al  Al8       1.0  0.4028251011714125  0.8626616596486543  0.5833333333333326  1.0000
  P   P8        1.0  0.31227251110887994  0.8251535487367422  0.41666666666666596  1.0000
  Al  Al9       1.0  0.31227251110887994  0.8251535487367422  0.08333333333333275  1.0000
  P   P9        1.0  0.2345132391799333  0.7654867608200667  0.9166666666666663  1.0000
  Al  Al10      1.0  0.2345132391799333  0.7654867608200667  0.583333333333333  1.0000
  P   P10       1.0  0.17484645126325782  0.6877274888911202  0.4166666666666664  1.0000
  Al  Al11      1.0  0.1748464512632579  0.6877274888911203  0.08333333333333319  1.0000
  P   P11       1.0  0.13733834035134573  0.5971748988285878  0.9166666666666659  1.0000
  Al  Al12      1.0  0.13733834035134573  0.5971748988285878  0.583333333333333  1.0000
  P   P12       1.0  0.12454502221775963  0.5000000000000001  0.4166666666666664  1.0000
  Al  Al13      1.0  0.12454502221775963  0.5000000000000001  0.08333333333333229  1.0000
  P   P13       1.0  0.1373383403513457  0.4028251011714124  0.9166666666666659  1.0000
  Al  Al14      1.0  0.13733834035134565  0.40282510117141257  0.5833333333333321  1.0000
  P   P14       1.0  0.17484645126325782  0.31227251110888  0.4166666666666655  1.0000
  Al  Al15      1.0  0.17484645126325782  0.31227251110888  0.08333333333333319  1.0000
  P   P15       1.0  0.23451323917993327  0.2345132391799333  0.9166666666666669  1.0000
  Al  Al16      1.0  0.23451323917993316  0.23451323917993344  0.583333333333333  1.0000
  P   P16       1.0  0.31227251110887966  0.17484645126325793  0.4166666666666664  1.0000
  Al  Al17      1.0  0.31227251110887966  0.17484645126325793  0.08333333333333319  1.0000
  P   P17       1.0  0.4028251011714121  0.1373383403513458  0.9166666666666669  1.0000
  Al  Al18      1.0  0.4028251011714121  0.1373383403513458  0.583333333333333  1.0000
  P   P18       1.0  0.49999999999999956  0.12454502221775963  0.4166666666666664  1.0000
  Al  Al19      1.0  0.49999999999999994  0.12454502221775963  0.0833333333333341  1.0000
  P   P19       1.0  0.5971748988285874  0.13733834035134565  0.9166666666666677  1.0000
  Al  Al20      1.0  0.5971748988285874  0.13733834035134565  0.583333333333333  1.0000
  P   P20       1.0  0.68772748889112  0.1748464512632577  0.4166666666666664  1.0000
  Al  Al21      1.0  0.68772748889112  0.1748464512632577  0.0833333333333341  1.0000
  P   P21       1.0  0.7654867608200665  0.234513239179933  0.9166666666666677  1.0000
  Al  Al22      1.0  0.7654867608200666  0.23451323917993327  0.583333333333333  1.0000
  P   P22       1.0  0.8251535487367421  0.31227251110887966  0.4166666666666664  1.0000
  Al  Al23      1.0  0.8251535487367421  0.31227251110887966  0.0833333333333341  1.0000
  P   P23       1.0  0.8626616596486543  0.4028251011714121  0.9166666666666659  1.0000
  Al  Al24      1.0  0.8626616596486543  0.4028251011714121  0.5833333333333349  1.0000
  P   P24       1.0  0.8754549777822405  0.49999999999999956  0.41666666666666824  1.0000
