data_image0
_chemical_formula_structural       AlPAlPAlPAlPAlPAlPAlPAlPAlPAlPAlPAlP
_chemical_formula_sum              "Al12 P12"
_cell_length_a       20.0
_cell_length_b       20.0
_cell_length_c       6.809999999999999
_cell_angle_alpha    90.0
_cell_angle_beta     90.0
_cell_angle_gamma    90.0

_space_group_name_H-M_alt    "P 1"
_space_group_IT_number       1

loop_
  _space_group_symop_operation_xyz
  'x, y, z'

loop_
  _atom_site_type_symbol
  _atom_site_label
  _atom_site_symmetry_multiplicity
  _atom_site_fract_x
  _atom_site_fract_y
  _atom_site_fract_z
  _atom_site_occupancy
  Al  Al1       1.0  0.6877274888911202  0.5  0.08333333333333301  1.0000
  P   P1        1.0  0.6625767743683711  0.5938637444455601  0.9166666666666663  1.0000
  Al  Al2       1.0  0.6625767743683711  0.5938637444455601  0.583333333333333  1.0000
  P   P2        1.0  0.5938637444455601  0.6625767743683711  0.4166666666666664  1.0000
  Al  Al3       1.0  0.5938637444455601  0.6625767743683711  0.08333333333333312  1.0000
  P   P3        1.0  0.5  0.6877274888911202  0.9166666666666665  1.0000
  Al  Al4       1.0  0.5  0.6877274888911202  0.5833333333333331  1.0000
  P   P4        1.0  0.4061362555544399  0.6625767743683711  0.41666666666666646  1.0000
  Al  Al5       1.0  0.40613625555444  0.6625767743683711  0.08333333333333323  1.0000
  P   P5        1.0  0.33742322563162896  0.5938637444455601  0.9166666666666663  1.0000
  Al  Al6       1.0  0.33742322563162896  0.5938637444455601  0.5833333333333334  1.0000
  P   P6        1.0  0.3122725111088798  0.5  0.4166666666666667  1.0000
  Al  Al7       1.0  0.3122725111088798  0.5  0.08333333333333301  1.0000
  P   P7        1.0  0.33742322563162896  0.4061362555544399  0.9166666666666665  1.0000
  Al  Al8       1.0  0.33742322563162896  0.40613625555444  0.5833333333333334  1.0000
  P   P8        1.0  0.40613625555443983  0.33742322563162896  0.4166666666666667  1.0000
  Al  Al9       1.0  0.40613625555443983  0.33742322563162896  0.08333333333333347  1.0000
  P   P9        1.0  0.5  0.3122725111088798  0.9166666666666671  1.0000
  Al  Al10      1.0  0.5  0.3122725111088798  0.5833333333333338  1.0000
  P   P10       1.0  0.5938637444455601  0.33742322563162896  0.41666666666666713  1.0000
  Al  Al11      1.0  0.59386374444556  0.33742322563162885  0.08333333333333391  1.0000
  P   P11       1.0  0.662576774368371  0.40613625555443983  0.9166666666666665  1.0000
  Al  Al12      1.0  0.662576774368371  0.40613625555443983  0.5833333333333338  1.0000
  P   P12       1.0  0.6877274888911202  0.49999999999999994  0.41666666666666713  1.0000
