data_image0
_chemical_formula_structural       AlPAlPAlPAlPAlPAlPAlPAlPAlPAlPAlPAlPAlPAlPAlPAlPAlPAlPAlPAlPAlPAlPAlPAlPAlPAlPAlPAlPAlPAlP
_chemical_formula_sum              "Al30 P30"
_cell_length_a       20.0
_cell_length_b       20.0
_cell_length_c       6.81
_cell_angle_alpha    90.0
_cell_angle_beta     90.0
_cell_angle_gamma    90.0

_space_group_name_H-M_alt    "P 1"
_space_group_IT_number       1

loop_
  _space_group_symop_operation_xyz
  'x, y, z'

loop_
  _atom_site_type_symbol
  _atom_site_label
  _atom_site_symmetry_multiplicity
  _atom_site_fract_x
  _atom_site_fract_y
  _atom_site_fract_z
  _atom_site_occupancy
  Al  Al1       1.0  0.9693187222278006  0.5  0.08333333333333312  1.0000
  P   P1        1.0  0.9590629821265785  0.5975768490708123  0.9166666666666664  1.0000
  Al  Al2       1.0  0.9590629821265785  0.5975768490708123  0.5833333333333331  1.0000
  P   P2        1.0  0.9287439868778368  0.6908891216115596  0.41666666666666646  1.0000
  Al  Al3       1.0  0.9287439868778368  0.6908891216115596  0.08333333333333312  1.0000
  P   P3        1.0  0.8796868220606261  0.7758586235502488  0.9166666666666664  1.0000
  Al  Al4       1.0  0.8796868220606261  0.7758586235502488  0.583333333333333  1.0000
  P   P4        1.0  0.8140355211798527  0.8487717799232524  0.4166666666666664  1.0000
  Al  Al5       1.0  0.8140355211798527  0.8487717799232524  0.08333333333333312  1.0000
  P   P5        1.0  0.7346593611139003  0.9064419359209277  0.9166666666666666  1.0000
  Al  Al6       1.0  0.7346593611139003  0.9064419359209277  0.5833333333333331  1.0000
  P   P6        1.0  0.6450274609467258  0.9463486289940648  0.4166666666666665  1.0000
  Al  Al7       1.0  0.6450274609467258  0.9463486289940648  0.08333333333333312  1.0000
  P   P7        1.0  0.5490571648172108  0.9667477451618084  0.9166666666666664  1.0000
  Al  Al8       1.0  0.5490571648172108  0.9667477451618084  0.5833333333333334  1.0000
  P   P8        1.0  0.4509428351827894  0.9667477451618084  0.41666666666666674  1.0000
  Al  Al9       1.0  0.4509428351827894  0.9667477451618084  0.08333333333333312  1.0000
  P   P9        1.0  0.3549725390532743  0.9463486289940648  0.9166666666666664  1.0000
  Al  Al10      1.0  0.3549725390532743  0.9463486289940648  0.5833333333333334  1.0000
  P   P10       1.0  0.2653406388860999  0.9064419359209279  0.41666666666666674  1.0000
  Al  Al11      1.0  0.2653406388860999  0.9064419359209279  0.08333333333333312  1.0000
  P   P11       1.0  0.18596447882014747  0.8487717799232526  0.9166666666666669  1.0000
  Al  Al12      1.0  0.18596447882014747  0.8487717799232526  0.5833333333333329  1.0000
  P   P12       1.0  0.12031317793937416  0.7758586235502491  0.4166666666666663  1.0000
  Al  Al13      1.0  0.12031317793937407  0.7758586235502489  0.08333333333333312  1.0000
  P   P13       1.0  0.07125601312216334  0.6908891216115597  0.9166666666666659  1.0000
  Al  Al14      1.0  0.07125601312216334  0.6908891216115597  0.5833333333333329  1.0000
  P   P14       1.0  0.04093701787342159  0.5975768490708125  0.4166666666666663  1.0000
  Al  Al15      1.0  0.04093701787342159  0.5975768490708125  0.08333333333333312  1.0000
  P   P15       1.0  0.030681277772199513  0.5000000000000003  0.9166666666666669  1.0000
  Al  Al16      1.0  0.030681277772199513  0.5000000000000001  0.5833333333333329  1.0000
  P   P16       1.0  0.04093701787342159  0.40242315092918785  0.4166666666666663  1.0000
  Al  Al17      1.0  0.04093701787342159  0.40242315092918785  0.08333333333333312  1.0000
  P   P17       1.0  0.07125601312216326  0.30911087838844065  0.9166666666666659  1.0000
  Al  Al18      1.0  0.07125601312216326  0.30911087838844065  0.5833333333333329  1.0000
  P   P18       1.0  0.12031317793937385  0.2241413764497514  0.4166666666666663  1.0000
  Al  Al19      1.0  0.12031317793937397  0.2241413764497512  0.08333333333333312  1.0000
  P   P19       1.0  0.18596447882014722  0.15122822007674763  0.9166666666666669  1.0000
  Al  Al20      1.0  0.18596447882014722  0.15122822007674763  0.583333333333332  1.0000
  P   P20       1.0  0.26534063888609954  0.09355806407907244  0.41666666666666535  1.0000
  Al  Al21      1.0  0.26534063888609954  0.09355806407907244  0.08333333333333312  1.0000
  P   P21       1.0  0.3549725390532742  0.0536513710059352  0.9166666666666669  1.0000
  Al  Al22      1.0  0.3549725390532742  0.0536513710059352  0.583333333333332  1.0000
  P   P22       1.0  0.4509428351827894  0.03325225483819168  0.41666666666666535  1.0000
  Al  Al23      1.0  0.45094283518278894  0.03325225483819168  0.08333333333333312  1.0000
  P   P23       1.0  0.5490571648172105  0.03325225483819168  0.9166666666666669  1.0000
  Al  Al24      1.0  0.5490571648172105  0.03325225483819168  0.5833333333333338  1.0000
  P   P24       1.0  0.6450274609467257  0.0536513710059352  0.4166666666666672  1.0000
  Al  Al25      1.0  0.6450274609467257  0.0536513710059352  0.08333333333333312  1.0000
  P   P25       1.0  0.7346593611139003  0.09355806407907236  0.9166666666666669  1.0000
  Al  Al26      1.0  0.7346593611139  0.09355806407907208  0.5833333333333338  1.0000
  P   P26       1.0  0.8140355211798526  0.15122822007674738  0.4166666666666672  1.0000
  Al  Al27      1.0  0.8140355211798526  0.15122822007674738  0.08333333333333312  1.0000
  P   P27       1.0  0.8796868220606261  0.22414137644975107  0.9166666666666651  1.0000
  Al  Al28      1.0  0.8796868220606261  0.22414137644975107  0.5833333333333338  1.0000
  P   P28       1.0  0.9287439868778368  0.30911087838844054  0.4166666666666672  1.0000
  Al  Al29      1.0  0.9287439868778364  0.3091108783884402  0.08333333333333312  1.0000
  P   P29       1.0  0.9590629821265785  0.4024231509291874  0.9166666666666669  1.0000
  Al  Al30      1.0  0.9590629821265785  0.4024231509291874  0.583333333333332  1.0000
  P   P30       1.0  0.9693187222278006  0.49999999999999994  0.41666666666666535  1.0000
