data_image0
_chemical_formula_structural       AlPAlPAlPAlPAlPAlPAlPAlPAlPAlPAlPAlPAlPAlPAlPAlPAlPAlP
_chemical_formula_sum              "Al18 P18"
_cell_length_a       20.0
_cell_length_b       20.0
_cell_length_c       6.81
_cell_angle_alpha    90.0
_cell_angle_beta     90.0
_cell_angle_gamma    90.0

_space_group_name_H-M_alt    "P 1"
_space_group_IT_number       1

loop_
  _space_group_symop_operation_xyz
  'x, y, z'

loop_
  _atom_site_type_symbol
  _atom_site_label
  _atom_site_symmetry_multiplicity
  _atom_site_fract_x
  _atom_site_fract_y
  _atom_site_fract_z
  _atom_site_occupancy
  Al  Al1       1.0  0.7815912333366803  0.5  0.08333333333333312  1.0000
  P   P1        1.0  0.7646092040444814  0.5963098739850633  0.9166666666666664  1.0000
  Al  Al2       1.0  0.7646092040444814  0.5963098739850632  0.5833333333333331  1.0000
  P   P2        1.0  0.7157113995285835  0.6810033557851694  0.41666666666666646  1.0000
  Al  Al3       1.0  0.7157113995285835  0.6810033557851694  0.08333333333333312  1.0000
  P   P3        1.0  0.6407956166683402  0.7438651615525567  0.9166666666666664  1.0000
  Al  Al4       1.0  0.6407956166683402  0.7438651615525567  0.583333333333333  1.0000
  P   P4        1.0  0.548897804515898  0.7773132297702325  0.4166666666666664  1.0000
  Al  Al5       1.0  0.548897804515898  0.7773132297702325  0.08333333333333312  1.0000
  P   P5        1.0  0.45110219548410213  0.7773132297702325  0.9166666666666666  1.0000
  Al  Al6       1.0  0.45110219548410213  0.7773132297702325  0.5833333333333331  1.0000
  P   P6        1.0  0.3592043833316598  0.7438651615525567  0.4166666666666665  1.0000
  Al  Al7       1.0  0.35920438333165994  0.7438651615525567  0.08333333333333312  1.0000
  P   P7        1.0  0.2842886004714166  0.6810033557851694  0.9166666666666664  1.0000
  Al  Al8       1.0  0.2842886004714166  0.6810033557851694  0.5833333333333334  1.0000
  P   P8        1.0  0.23539079595551865  0.5963098739850633  0.41666666666666674  1.0000
  Al  Al9       1.0  0.23539079595551865  0.5963098739850633  0.08333333333333312  1.0000
  P   P9        1.0  0.2184087666633197  0.5  0.9166666666666664  1.0000
  Al  Al10      1.0  0.2184087666633197  0.5  0.5833333333333334  1.0000
  P   P10       1.0  0.23539079595551865  0.4036901260149368  0.41666666666666674  1.0000
  Al  Al11      1.0  0.23539079595551865  0.4036901260149368  0.08333333333333312  1.0000
  P   P11       1.0  0.2842886004714166  0.31899664421483076  0.9166666666666669  1.0000
  Al  Al12      1.0  0.2842886004714166  0.31899664421483076  0.5833333333333329  1.0000
  P   P12       1.0  0.35920438333166  0.2561348384474433  0.4166666666666663  1.0000
  Al  Al13      1.0  0.35920438333165977  0.25613483844744345  0.08333333333333312  1.0000
  P   P13       1.0  0.45110219548410213  0.22268677022976752  0.9166666666666659  1.0000
  Al  Al14      1.0  0.45110219548410213  0.22268677022976752  0.5833333333333329  1.0000
  P   P14       1.0  0.5488978045158979  0.22268677022976746  0.4166666666666663  1.0000
  Al  Al15      1.0  0.5488978045158979  0.22268677022976746  0.08333333333333312  1.0000
  P   P15       1.0  0.6407956166683401  0.2561348384474433  0.9166666666666669  1.0000
  Al  Al16      1.0  0.6407956166683402  0.2561348384474434  0.5833333333333329  1.0000
  P   P16       1.0  0.7157113995285836  0.31899664421483087  0.4166666666666663  1.0000
  Al  Al17      1.0  0.7157113995285834  0.31899664421483065  0.08333333333333312  1.0000
  P   P17       1.0  0.7646092040444814  0.4036901260149368  0.9166666666666659  1.0000
  Al  Al18      1.0  0.7646092040444814  0.4036901260149366  0.5833333333333329  1.0000
  P   P18       1.0  0.7815912333366803  0.49999999999999994  0.4166666666666663  1.0000
